Skipping setup_environment - already set
doing: export -n PTX_SIM_USE_PTX_FILE
doing: export LD_LIBRARY_PATH=/home/runner/accel-sim/util/job_launching/../../sim_run_11.0/gpgpu-sim-builds/gpgpu-sim_git-commit-61396d8_modified_0.0:/home/runner/accel-sim/gpu-simulator/gpgpu-sim/lib/gcc-7.5.0/cuda-11000/release:
doing: cd /home/runner/accel-sim/util/job_launching/../../sim_run_11.0/lud-rodinia-2.0-ft/_v__b__i___data_64_dat/ORIN-PTX
doing: export OPENCL_CURRENT_TEST_PATH=/home/runner/accel-sim/util/job_launching/../../sim_run_11.0/lud-rodinia-2.0-ft/_v__b__i___data_64_dat/ORIN-PTX
doing: export OPENCL_REMOTE_GPU_HOST=REPLACE_REMOTE_HOST
doing 
doing: export PATH=/home/runner/accel-sim/gpu-simulator/gpgpu-sim/bin:/usr/local/cuda-11.0//bin:/usr/local/cuda-11.0//bin:/usr/local/sbin:/usr/local/bin:/usr/sbin:/usr/bin:/sbin:/bin
doing export CUDA_LAUNCH_BLOCKING=1
doing:  /home/runner/accel-sim/gpu-app-collection/src/..//bin/11.0/release/lud-rodinia-2.0-ft -v -b -i ./data/64.dat


        *** GPGPU-Sim Simulator Version 4.2.0  [build gpgpu-sim_git-commit-61396d8_modified_0.0] ***


GPGPU-Sim PTX: simulation mode 0 (can change with PTX_SIM_MODE_FUNC environment variable:
               1=functional simulation only, 0=detailed performance simulator)
GPGPU-Sim: Configuration options:

-save_embedded_ptx                      0 # saves ptx files embedded in binary as <n>.ptx
-keep                                   0 # keep intermediate files created by GPGPU-Sim when interfacing with external programs
-gpgpu_ptx_save_converted_ptxplus                    0 # Saved converted ptxplus to a file
-gpgpu_occupancy_sm_number                   87 # The SM number to pass to ptxas when getting register usage for computing GPU occupancy. This parameter is required in the config.
-ptx_opcode_latency_int           4,4,4,4,21 # Opcode latencies for integers <ADD,MAX,MUL,MAD,DIV,SHFL>Default 1,1,19,25,145,32
-ptx_opcode_latency_fp           4,4,4,4,39 # Opcode latencies for single precision floating points <ADD,MAX,MUL,MAD,DIV>Default 1,1,1,1,30
-ptx_opcode_latency_dp      64,64,64,64,330 # Opcode latencies for double precision floating points <ADD,MAX,MUL,MAD,DIV>Default 8,8,8,8,335
-ptx_opcode_latency_sfu                   21 # Opcode latencies for SFU instructionsDefault 8
-ptx_opcode_latency_tesnor                   64 # Opcode latencies for Tensor instructionsDefault 64
-ptx_opcode_initiation_int            2,2,2,2,2 # Opcode initiation intervals for integers <ADD,MAX,MUL,MAD,DIV,SHFL>Default 1,1,4,4,32,4
-ptx_opcode_initiation_fp            1,1,1,1,2 # Opcode initiation intervals for single precision floating points <ADD,MAX,MUL,MAD,DIV>Default 1,1,1,1,5
-ptx_opcode_initiation_dp      64,64,64,64,130 # Opcode initiation intervals for double precision floating points <ADD,MAX,MUL,MAD,DIV>Default 8,8,8,8,130
-ptx_opcode_initiation_sfu                    8 # Opcode initiation intervals for sfu instructionsDefault 8
-ptx_opcode_initiation_tensor                   64 # Opcode initiation intervals for tensor instructionsDefault 64
-cdp_latency         7200,8000,100,12000,1600 # CDP API latency <cudaStreamCreateWithFlags, cudaGetParameterBufferV2_init_perWarp, cudaGetParameterBufferV2_perKernel, cudaLaunchDeviceV2_init_perWarp, cudaLaunchDevicV2_perKernel>Default 7200,8000,100,12000,1600
-network_mode                           2 # Interconnection network mode
-inter_config_file                   mesh # Interconnection network config file
-icnt_in_buffer_limit                  512 # in_buffer_limit
-icnt_out_buffer_limit                  512 # out_buffer_limit
-icnt_subnets                           2 # subnets
-icnt_arbiter_algo                      1 # arbiter_algo
-icnt_verbose                           0 # inct_verbose
-icnt_grant_cycles                      1 # grant_cycles
-gpgpu_ptx_use_cuobjdump                    1 # Use cuobjdump to extract ptx and sass from binaries
-gpgpu_experimental_lib_support                    0 # Try to extract code from cuda libraries [Broken because of unknown cudaGetExportTable]
-checkpoint_option                      0 #  checkpointing flag (0 = no checkpoint)
-checkpoint_kernel                      1 #  checkpointing during execution of which kernel (1- 1st kernel)
-checkpoint_CTA                         0 #  checkpointing after # of CTA (< less than total CTA)
-resume_option                          0 #  resume flag (0 = no resume)
-resume_kernel                          0 #  Resume from which kernel (1= 1st kernel)
-resume_CTA                             0 #  resume from which CTA 
-checkpoint_CTA_t                       0 #  resume from which CTA 
-checkpoint_insn_Y                      0 #  resume from which CTA 
-gpgpu_ptx_convert_to_ptxplus                    0 # Convert SASS (native ISA) to ptxplus and run ptxplus
-gpgpu_ptx_force_max_capability                   86 # Force maximum compute capability
-gpgpu_ptx_inst_debug_to_file                    0 # Dump executed instructions' debug information to file
-gpgpu_ptx_inst_debug_file       inst_debug.txt # Executed instructions' debug output file
-gpgpu_ptx_inst_debug_thread_uid                    1 # Thread UID for executed instructions' debug output
-gpgpu_simd_model                       1 # 1 = post-dominator
-gpgpu_shader_core_pipeline              1536:32 # shader core pipeline config, i.e., {<nthread>:<warpsize>}
-gpgpu_tex_cache:l1  N:4:128:256,L:R:m:N:L,T:512:8,128:2 # per-shader L1 texture cache  (READ-ONLY) config  {<nsets>:<bsize>:<assoc>,<rep>:<wr>:<alloc>:<wr_alloc>,<mshr>:<N>:<merge>,<mq>:<rf>}
-gpgpu_const_cache:l1 N:128:64:8,L:R:f:N:L,S:2:64,4 # per-shader L1 constant memory cache  (READ-ONLY) config  {<nsets>:<bsize>:<assoc>,<rep>:<wr>:<alloc>:<wr_alloc>,<mshr>:<N>:<merge>,<mq>} 
-gpgpu_cache:il1     N:64:128:16,L:R:f:N:L,S:2:48,4 # shader L1 instruction cache config  {<nsets>:<bsize>:<assoc>,<rep>:<wr>:<alloc>:<wr_alloc>,<mshr>:<N>:<merge>,<mq>} 
-gpgpu_cache:dl1     S:4:128:256,L:T:m:L:L,A:384:48,16:0,32 # per-shader L1 data cache config  {<nsets>:<bsize>:<assoc>,<rep>:<wr>:<alloc>:<wr_alloc>,<mshr>:<N>:<merge>,<mq> | none}
-gpgpu_l1_cache_write_ratio                   25 # L1D write ratio
-gpgpu_l1_banks                         4 # The number of L1 cache banks
-gpgpu_l1_banks_byte_interleaving                   32 # l1 banks byte interleaving granularity
-gpgpu_l1_banks_hashing_function                    0 # l1 banks hashing function
-gpgpu_l1_latency                      39 # L1 Hit Latency
-gpgpu_smem_latency                    29 # smem Latency
-gpgpu_cache:dl1PrefL1                 none # per-shader L1 data cache config  {<nsets>:<bsize>:<assoc>,<rep>:<wr>:<alloc>:<wr_alloc>,<mshr>:<N>:<merge>,<mq> | none}
-gpgpu_cache:dl1PrefShared                 none # per-shader L1 data cache config  {<nsets>:<bsize>:<assoc>,<rep>:<wr>:<alloc>:<wr_alloc>,<mshr>:<N>:<merge>,<mq> | none}
-gpgpu_gmem_skip_L1D                    1 # global memory access skip L1D cache (implements -Xptxas -dlcm=cg, default=no skip)
-gpgpu_perfect_mem                      1 # enable perfect memory mode (no cache miss)
-n_regfile_gating_group                    4 # group of lanes that should be read/written together)
-gpgpu_clock_gated_reg_file                    0 # enable clock gated reg file for power calculations
-gpgpu_clock_gated_lanes                    0 # enable clock gated lanes for power calculations
-gpgpu_shader_registers                65536 # Number of registers per shader core. Limits number of concurrent CTAs. (default 8192)
-gpgpu_registers_per_block                65536 # Maximum number of registers per CTA. (default 8192)
-gpgpu_ignore_resources_limitation                    0 # gpgpu_ignore_resources_limitation (default 0)
-gpgpu_shader_cta                      32 # Maximum number of concurrent CTAs in shader (default 32)
-gpgpu_num_cta_barriers                   16 # Maximum number of named barriers per CTA (default 16)
-gpgpu_n_clusters                       1 # number of processing clusters
-gpgpu_n_cores_per_cluster                    1 # number of simd cores per cluster
-gpgpu_n_cluster_ejection_buffer_size                   32 # number of packets in ejection buffer
-gpgpu_n_ldst_response_buffer_size                    2 # number of response packets in ld/st unit ejection buffer
-gpgpu_shmem_per_block                49152 # Size of shared memory per thread block or CTA (default 48kB)
-gpgpu_shmem_size                  102400 # Size of shared memory per shader core (default 16kB)
-gpgpu_shmem_option      0,8,16,32,64,100 # Option list of shared memory sizes
-gpgpu_unified_l1d_size                  128 # Size of unified data cache(L1D + shared memory) in KB
-gpgpu_adaptive_cache_config                    1 # adaptive_cache_config
-gpgpu_shmem_sizeDefault               102400 # Size of shared memory per shader core (default 16kB)
-gpgpu_shmem_size_PrefL1                16384 # Size of shared memory per shader core (default 16kB)
-gpgpu_shmem_size_PrefShared                16384 # Size of shared memory per shader core (default 16kB)
-gpgpu_shmem_num_banks                   32 # Number of banks in the shared memory in each shader core (default 16)
-gpgpu_shmem_limited_broadcast                    0 # Limit shared memory to do one broadcast per cycle (default on)
-gpgpu_shmem_warp_parts                    1 # Number of portions a warp is divided into for shared memory bank conflict check 
-gpgpu_mem_unit_ports                    1 # The number of memory transactions allowed per core cycle
-gpgpu_shmem_warp_parts                    1 # Number of portions a warp is divided into for shared memory bank conflict check 
-gpgpu_warpdistro_shader                   -1 # Specify which shader core to collect the warp size distribution from
-gpgpu_warp_issue_shader                    0 # Specify which shader core to collect the warp issue distribution from
-gpgpu_local_mem_map                    1 # Mapping from local memory space address to simulated GPU physical address space (default = enabled)
-gpgpu_num_reg_banks                   32 # Number of register banks (default = 8)
-gpgpu_reg_bank_use_warp_id                    0 # Use warp ID in mapping registers to banks (default = off)
-gpgpu_sub_core_model                    0 # Sub Core Volta/Pascal model (default = off)
-gpgpu_enable_specialized_operand_collector                    0 # enable_specialized_operand_collector
-gpgpu_operand_collector_num_units_sp                    4 # number of collector units (default = 4)
-gpgpu_operand_collector_num_units_dp                    0 # number of collector units (default = 0)
-gpgpu_operand_collector_num_units_sfu                    4 # number of collector units (default = 4)
-gpgpu_operand_collector_num_units_int                    0 # number of collector units (default = 0)
-gpgpu_operand_collector_num_units_tensor_core                    4 # number of collector units (default = 4)
-gpgpu_operand_collector_num_units_mem                    2 # number of collector units (default = 2)
-gpgpu_operand_collector_num_units_gen                    8 # number of collector units (default = 0)
-gpgpu_operand_collector_num_in_ports_sp                    1 # number of collector unit in ports (default = 1)
-gpgpu_operand_collector_num_in_ports_dp                    0 # number of collector unit in ports (default = 0)
-gpgpu_operand_collector_num_in_ports_sfu                    1 # number of collector unit in ports (default = 1)
-gpgpu_operand_collector_num_in_ports_int                    0 # number of collector unit in ports (default = 0)
-gpgpu_operand_collector_num_in_ports_tensor_core                    1 # number of collector unit in ports (default = 1)
-gpgpu_operand_collector_num_in_ports_mem                    1 # number of collector unit in ports (default = 1)
-gpgpu_operand_collector_num_in_ports_gen                    8 # number of collector unit in ports (default = 0)
-gpgpu_operand_collector_num_out_ports_sp                    1 # number of collector unit in ports (default = 1)
-gpgpu_operand_collector_num_out_ports_dp                    0 # number of collector unit in ports (default = 0)
-gpgpu_operand_collector_num_out_ports_sfu                    1 # number of collector unit in ports (default = 1)
-gpgpu_operand_collector_num_out_ports_int                    0 # number of collector unit in ports (default = 0)
-gpgpu_operand_collector_num_out_ports_tensor_core                    1 # number of collector unit in ports (default = 1)
-gpgpu_operand_collector_num_out_ports_mem                    1 # number of collector unit in ports (default = 1)
-gpgpu_operand_collector_num_out_ports_gen                    8 # number of collector unit in ports (default = 0)
-gpgpu_coalesce_arch                   86 # Coalescing arch (GT200 = 13, Fermi = 20)
-gpgpu_num_sched_per_core                    1 # Number of warp schedulers per core
-gpgpu_max_insn_issue_per_warp                    1 # Max number of instructions that can be issued per warp in one cycle by scheduler (either 1 or 2)
-gpgpu_dual_issue_diff_exec_units                    1 # should dual issue use two different execution unit resources (Default = 1)
-gpgpu_simt_core_sim_order                    1 # Select the simulation order of cores in a cluster (0=Fix, 1=Round-Robin)
-gpgpu_pipeline_widths 1,1,1,1,1,1,1,1,1,1,2,1,1 # Pipeline widths ID_OC_SP,ID_OC_DP,ID_OC_INT,ID_OC_SFU,ID_OC_MEM,OC_EX_SP,OC_EX_DP,OC_EX_INT,OC_EX_SFU,OC_EX_MEM,EX_WB,ID_OC_TENSOR_CORE,OC_EX_TENSOR_CORE
-gpgpu_tensor_core_avail                    1 # Tensor Core Available (default=0)
-gpgpu_num_sp_units                     1 # Number of SP units (default=1)
-gpgpu_num_dp_units                     1 # Number of DP units (default=0)
-gpgpu_num_int_units                    1 # Number of INT units (default=0)
-gpgpu_num_sfu_units                    1 # Number of SF units (default=1)
-gpgpu_num_tensor_core_units                    1 # Number of tensor_core units (default=1)
-gpgpu_num_mem_units                    1 # Number if ldst units (default=1) WARNING: not hooked up to anything
-gpgpu_scheduler                      lrr # Scheduler configuration: < lrr | gto | two_level_active > If two_level_active:<num_active_warps>:<inner_prioritization>:<outer_prioritization>For complete list of prioritization values see shader.h enum scheduler_prioritization_typeDefault: gto
-gpgpu_concurrent_kernel_sm                    0 # Support concurrent kernels on a SM (default = disabled)
-gpgpu_perfect_inst_const_cache                    1 # perfect inst and const cache mode, so all inst and const hits in the cache(default = disabled)
-gpgpu_inst_fetch_throughput                   32 # the number of fetched intruction per warp each cycle
-gpgpu_reg_file_port_throughput                   32 # the number ports of the register file
-specialized_unit_1         0,4,4,4,4,BRA # specialized unit config {<enabled>,<num_units>:<latency>:<initiation>,<ID_OC_SPEC>:<OC_EX_SPEC>,<NAME>}
-specialized_unit_2         0,4,4,4,4,BRA # specialized unit config {<enabled>,<num_units>:<latency>:<initiation>,<ID_OC_SPEC>:<OC_EX_SPEC>,<NAME>}
-specialized_unit_3         0,4,4,4,4,BRA # specialized unit config {<enabled>,<num_units>:<latency>:<initiation>,<ID_OC_SPEC>:<OC_EX_SPEC>,<NAME>}
-specialized_unit_4         0,4,4,4,4,BRA # specialized unit config {<enabled>,<num_units>:<latency>:<initiation>,<ID_OC_SPEC>:<OC_EX_SPEC>,<NAME>}
-specialized_unit_5         0,4,4,4,4,BRA # specialized unit config {<enabled>,<num_units>:<latency>:<initiation>,<ID_OC_SPEC>:<OC_EX_SPEC>,<NAME>}
-specialized_unit_6         0,4,4,4,4,BRA # specialized unit config {<enabled>,<num_units>:<latency>:<initiation>,<ID_OC_SPEC>:<OC_EX_SPEC>,<NAME>}
-specialized_unit_7         0,4,4,4,4,BRA # specialized unit config {<enabled>,<num_units>:<latency>:<initiation>,<ID_OC_SPEC>:<OC_EX_SPEC>,<NAME>}
-specialized_unit_8         0,4,4,4,4,BRA # specialized unit config {<enabled>,<num_units>:<latency>:<initiation>,<ID_OC_SPEC>:<OC_EX_SPEC>,<NAME>}
-gpgpu_perf_sim_memcpy                    1 # Fill the L2 cache on memcpy
-gpgpu_simple_dram_model                    0 # simple_dram_model with fixed latency and BW
-gpgpu_dram_scheduler                    1 # 0 = fifo, 1 = FR-FCFS (defaul)
-gpgpu_dram_partition_queues          64:64:64:64 # i2$:$2d:d2$:$2i
-l2_ideal                               0 # Use a ideal L2 cache that always hit
-gpgpu_cache:dl2     S:64:128:16,L:B:m:L:P,A:192:4,32:0,32 # unified banked L2 data cache config  {<nsets>:<bsize>:<assoc>,<rep>:<wr>:<alloc>:<wr_alloc>,<mshr>:<N>:<merge>,<mq>}
-gpgpu_cache:dl2_texture_only                    0 # L2 cache used for texture only
-gpgpu_n_mem                           16 # number of memory modules (e.g. memory controllers) in gpu
-gpgpu_n_sub_partition_per_mchannel                    2 # number of memory subpartition in each memory module
-gpgpu_n_mem_per_ctrlr                    1 # number of memory chips per memory controller
-gpgpu_memlatency_stat                   14 # track and display latency statistics 0x2 enables MC, 0x4 enables queue logs
-gpgpu_frfcfs_dram_sched_queue_size                   64 # 0 = unlimited (default); # entries per chip
-gpgpu_dram_return_queue_size                  192 # 0 = unlimited (default); # entries per chip
-gpgpu_dram_buswidth                    2 # default = 4 bytes (8 bytes per cycle at DDR)
-gpgpu_dram_burst_length                   16 # Burst length of each DRAM request (default = 4 data bus cycle)
-dram_data_command_freq_ratio                    4 # Frequency ratio between DRAM data bus and command bus (default = 2 times, i.e. DDR)
-gpgpu_dram_timing_opt nbk=16:CCD=4:RRD=12:RCD=24:RAS=55:RP=24:RC=78:CL=24:WL=8:CDLR=10:WR=24:nbkgrp=4:CCDL=6:RTPL=4 # DRAM timing parameters = {nbk:tCCD:tRRD:tRCD:tRAS:tRP:tRC:CL:WL:tCDLR:tWR:nbkgrp:tCCDL:tRTPL}
-gpgpu_l2_rop_latency                  187 # ROP queue latency (default 85)
-dram_latency                         254 # DRAM latency (default 30)
-dram_dual_bus_interface                    0 # dual_bus_interface (default = 0) 
-dram_bnk_indexing_policy                    0 # dram_bnk_indexing_policy (0 = normal indexing, 1 = Xoring with the higher bits) (Default = 0)
-dram_bnkgrp_indexing_policy                    1 # dram_bnkgrp_indexing_policy (0 = take higher bits, 1 = take lower bits) (Default = 0)
-dram_seperate_write_queue_enable                    0 # Seperate_Write_Queue_Enable
-dram_write_queue_size             32:28:16 # Write_Queue_Size
-dram_elimnate_rw_turnaround                    0 # elimnate_rw_turnaround i.e set tWTR and tRTW = 0
-icnt_flit_size                        40 # icnt_flit_size
-gpgpu_mem_addr_mapping dramid@8;00000000.00000000.00000000.00000000.0000RRRR.RRRRRRRR.RBBBCCCC.BCCSSSSS # mapping memory address to dram model {dramid@<start bit>;<memory address map>}
-gpgpu_mem_addr_test                    0 # run sweep test to check address mapping for aliased address
-gpgpu_mem_address_mask                    1 # 0 = old addressing mask, 1 = new addressing mask, 2 = new add. mask + flipped bank sel and chip sel bits
-gpgpu_memory_partition_indexing                    2 # 0 = no indexing, 1 = bitwise xoring, 2 = IPoly, 3 = custom indexing
-accelwattch_xml_file accelwattch_sass_sim.xml # AccelWattch XML file
-power_simulation_enabled                    0 # Turn on power simulator (1=On, 0=Off)
-power_per_cycle_dump                    0 # Dump detailed power output each cycle
-hw_perf_file_name            hw_perf.csv # Hardware Performance Statistics file
-hw_perf_bench_name                       # Kernel Name in Hardware Performance Statistics file
-power_simulation_mode                    0 # Switch performance counter input for power simulation (0=Sim, 1=HW, 2=HW-Sim Hybrid)
-dvfs_enabled                           0 # Turn on DVFS for power model
-aggregate_power_stats                    0 # Accumulate power across all kernels
-accelwattch_hybrid_perfsim_L1_RH                    0 # Get L1 Read Hits for Accelwattch-Hybrid from Accel-Sim
-accelwattch_hybrid_perfsim_L1_RM                    0 # Get L1 Read Misses for Accelwattch-Hybrid from Accel-Sim
-accelwattch_hybrid_perfsim_L1_WH                    0 # Get L1 Write Hits for Accelwattch-Hybrid from Accel-Sim
-accelwattch_hybrid_perfsim_L1_WM                    0 # Get L1 Write Misses for Accelwattch-Hybrid from Accel-Sim
-accelwattch_hybrid_perfsim_L2_RH                    0 # Get L2 Read Hits for Accelwattch-Hybrid from Accel-Sim
-accelwattch_hybrid_perfsim_L2_RM                    0 # Get L2 Read Misses for Accelwattch-Hybrid from Accel-Sim
-accelwattch_hybrid_perfsim_L2_WH                    0 # Get L2 Write Hits for Accelwattch-Hybrid from Accel-Sim
-accelwattch_hybrid_perfsim_L2_WM                    0 # Get L2 Write Misses for Accelwattch-Hybrid from Accel-Sim
-accelwattch_hybrid_perfsim_CC_ACC                    0 # Get Constant Cache Acesses for Accelwattch-Hybrid from Accel-Sim
-accelwattch_hybrid_perfsim_SHARED_ACC                    0 # Get Shared Memory Acesses for Accelwattch-Hybrid from Accel-Sim
-accelwattch_hybrid_perfsim_DRAM_RD                    0 # Get DRAM Reads for Accelwattch-Hybrid from Accel-Sim
-accelwattch_hybrid_perfsim_DRAM_WR                    0 # Get DRAM Writes for Accelwattch-Hybrid from Accel-Sim
-accelwattch_hybrid_perfsim_NOC                    0 # Get Interconnect Acesses for Accelwattch-Hybrid from Accel-Sim
-accelwattch_hybrid_perfsim_PIPE_DUTY                    0 # Get Pipeline Duty Cycle Acesses for Accelwattch-Hybrid from Accel-Sim
-accelwattch_hybrid_perfsim_NUM_SM_IDLE                    0 # Get Number of Idle SMs for Accelwattch-Hybrid from Accel-Sim
-accelwattch_hybrid_perfsim_CYCLES                    0 # Get Executed Cycles for Accelwattch-Hybrid from Accel-Sim
-accelwattch_hybrid_perfsim_VOLTAGE                    0 # Get Chip Voltage for Accelwattch-Hybrid from Accel-Sim
-power_trace_enabled                    0 # produce a file for the power trace (1=On, 0=Off)
-power_trace_zlevel                     6 # Compression level of the power trace output log (0=no comp, 9=highest)
-steady_power_levels_enabled                    0 # produce a file for the steady power levels (1=On, 0=Off)
-steady_state_definition                  8:4 # allowed deviation:number of samples
-gpgpu_max_cycle                        0 # terminates gpu simulation early (0 = no limit)
-gpgpu_max_insn                         0 # terminates gpu simulation early (0 = no limit)
-gpgpu_max_cta                          0 # terminates gpu simulation early (0 = no limit)
-gpgpu_max_completed_cta                    0 # terminates gpu simulation early (0 = no limit)
-gpgpu_runtime_stat                   500 # display runtime statistics such as dram utilization {<freq>:<flag>}
-liveness_message_freq                    1 # Minimum number of seconds between simulation liveness messages (0 = always print)
-gpgpu_compute_capability_major                    8 # Major compute capability version number
-gpgpu_compute_capability_minor                    6 # Minor compute capability version number
-gpgpu_flush_l1_cache                    1 # Flush L1 cache at the end of each kernel call
-gpgpu_flush_l2_cache                    0 # Flush L2 cache at the end of each kernel call
-gpgpu_deadlock_detect                    1 # Stop the simulation at deadlock (1=on (default), 0=off)
-gpgpu_ptx_instruction_classification                    0 # if enabled will classify ptx instruction types per kernel (Max 255 kernels now)
-gpgpu_ptx_sim_mode                     0 # Select between Performance (default) or Functional simulation (1)
-gpgpu_clock_domains     930:930:930:1600 # Clock Domain Frequencies in MhZ {<Core Clock>:<ICNT Clock>:<L2 Clock>:<DRAM Clock>}
-gpgpu_max_concurrent_kernel                  128 # maximum kernels that can run concurrently on GPU, set this value according to max resident grids for your compute capability
-gpgpu_cflog_interval                    0 # Interval between each snapshot in control flow logger
-visualizer_enabled                     0 # Turn on visualizer output (1=On, 0=Off)
-visualizer_outputfile                 NULL # Specifies the output log file for visualizer
-visualizer_zlevel                      6 # Compression level of the visualizer output log (0=no comp, 9=highest)
-gpgpu_stack_size_limit                 1024 # GPU thread stack size
-gpgpu_heap_size_limit              8388608 # GPU malloc heap size 
-gpgpu_runtime_sync_depth_limit                    2 # GPU device runtime synchronize depth
-gpgpu_runtime_pending_launch_count_limit                 2048 # GPU device runtime pending launch count
-trace_enabled                          0 # Turn on traces
-trace_components                    none # comma seperated list of traces to enable. Complete list found in trace_streams.tup. Default none
-trace_sampling_core                    0 # The core which is printed using CORE_DPRINTF. Default 0
-trace_sampling_memory_partition                   -1 # The memory partition which is printed using MEMPART_DPRINTF. Default -1 (i.e. all)
-enable_ptx_file_line_stats                    1 # Turn on PTX source line statistic profiling. (1 = On)
-ptx_line_stats_filename gpgpu_inst_stats.txt # Output file for PTX source line statistics.
-gpgpu_kernel_launch_latency                    0 # Kernel launch latency in cycles. Default: 0
-gpgpu_cdp_enabled                      0 # Turn on CDP
-gpgpu_TB_launch_latency                    0 # thread block fd38931cffcdbea70d6416f6275afba6  /home/runner/accel-sim/gpu-app-collection/bin/11.0/release/lud-rodinia-2.0-ft
Extracting PTX file and ptxas options    1: lud-rodinia-2.1.sm_60.ptx -arch=sm_60
Extracting PTX file and ptxas options    2: lud-rodinia-2.2.sm_62.ptx -arch=sm_62
Extracting PTX file and ptxas options    3: lud-rodinia-2.3.sm_70.ptx -arch=sm_70
Extracting PTX file and ptxas options    4: lud-rodinia-2.4.sm_75.ptx -arch=sm_75
Extracting PTX file and ptxas options    5: lud-rodinia-2.5.sm_60.ptx -arch=sm_60
Extracting PTX file and ptxas options    6: lud-rodinia-2.6.sm_62.ptx -arch=sm_62
Extracting PTX file and ptxas options    7: lud-rodinia-2.7.sm_70.ptx -arch=sm_70
Extracting PTX file and ptxas options    8: lud-rodinia-2.8.sm_75.ptx -arch=sm_75
launch latency in cycles. Default: 0
DRAM Timing Options:
nbk                                    16 # number of banks
CCD                                     4 # column to column delay
RRD                                    12 # minimal delay between activation of rows in different banks
RCD                                    24 # row to column delay
RAS                                    55 # time needed to activate row
RP                                     24 # time needed to precharge (deactivate) row
RC                                     78 # row cycle time
CDLR                                   10 # switching from write to read (changes tWTR)
WR                                     24 # last data-in to row precharge
CL                                     24 # CAS latency
WL                                      8 # Write latency
nbkgrp                                  4 # number of bank groups
CCDL                                    6 # column to column delay between accesses to different bank groups
RTPL                                    4 # read to precharge delay between accesses to different bank groups
Total number of memory sub partition = 32
addr_dec_mask[CHIP]  = 0000000000000f00 	high:12 low:8
addr_dec_mask[BK]    = 0000000000070080 	high:19 low:7
addr_dec_mask[ROW]   = 00000000fff80000 	high:32 low:19
addr_dec_mask[COL]   = 000000000000f07f 	high:16 low:0
addr_dec_mask[BURST] = 000000000000001f 	high:5 low:0
sub_partition_id_mask = 0000000000000080
GPGPU-Sim uArch: clock freqs: 930000000.000000:930000000.000000:930000000.000000:1600000000.000000
GPGPU-Sim uArch: clock periods: 0.00000000107526881720:0.00000000107526881720:0.00000000107526881720:0.00000000062500000000
*** Initializing Memory Statistics ***
GPGPU-Sim uArch: performance model initialization complete.
self exe links to: /home/runner/accel-sim/gpu-app-collection/bin/11.0/release/lud-rodinia-2.0-ft
self exe links to: /home/runner/accel-sim/gpu-app-collection/bin/11.0/release/lud-rodinia-2.0-ft
11.0
GPGPU-Sim PTX: __cudaRegisterFatBinary, fat_cubin_handle = 1, filename=default
self exe links to: /home/runner/accel-sim/gpu-app-collection/bin/11.0/release/lud-rodinia-2.0-ft
Running md5sum using "md5sum /home/runner/accel-sim/gpu-app-collection/bin/11.0/release/lud-rodinia-2.0-ft "
self exe links to: /home/runner/accel-sim/gpu-app-collection/bin/11.0/release/lud-rodinia-2.0-ft
Extracting specific PTX file named lud-rodinia-2.1.sm_60.ptx 
Extracting specific PTX file named lud-rodinia-2.2.sm_62.ptx 
Extracting specific PTX file named lud-rodinia-2.3.sm_70.ptx 
Extracting specific PTX file named lud-rodinia-2.4.sm_75.ptx 
Extracting specific PTX file named lud-rodinia-2.5.sm_60.ptx 
Extracting specific PTX file named lud-rodinia-2.6.sm_62.ptx 
Extracting specific PTX file named lud-rodinia-2.7.sm_70.ptx 
Extracting specific PTX file named lud-rodinia-2.8.sm_75.ptx 
self exe links to: /home/runner/accel-sim/gpu-app-collection/bin/11.0/release/lud-rodinia-2.0-ft
self exe links to: /home/runner/accel-sim/gpu-app-collection/bin/11.0/release/lud-rodinia-2.0-ft
11.0
GPGPU-Sim PTX: __cudaRegisterFatBinary, fat_cubin_handle = 2, filename=default
GPGPU-Sim PTX: __cudaRegisterFunction _Z12lud_internalPfii : hostFun 0x0x5c4697a020d0, fat_cubin_handle = 2
GPGPU-Sim PTX: Parsing lud-rodinia-2.1.sm_60.ptx
GPGPU-Sim PTX: finished parsing EMBEDDED .ptx file lud-rodinia-2.1.sm_60.ptx
GPGPU-Sim PTX: Parsing lud-rodinia-2.5.sm_60.ptx
GPGPU-Sim PTX: allocating shared region for "_ZZ12lud_diagonalPfiiE6shadow" from 0x0 to 0x400 (shared memory space)
GPGPU-Sim PTX: instruction assembly for function '_Z12lud_diagonalPfii'...   done.
GPGPU-Sim PTX: allocating shared region for "_ZZ13lud_perimeterPfiiE3dia" from 0x0 to 0x400 (shared memory space)
GPGPU-Sim PTX: allocating shared region for "_ZZ13lud_perimeterPfiiE8peri_row" from 0x400 to 0x800 (shared memory space)
GPGPU-Sim PTX: allocating shared region for "_ZZ13lud_perimeterPfiiE8peri_col" from 0x800 to 0xc00 (shared memory space)
GPGPU-Sim PTX: instruction assembly for function '_Z13lud_perimeterPfii'...   done.
GPGPU-Sim PTX: allocating shared region for "_ZZ12lud_internalPfiiE8peri_row" from 0x0 to 0x400 (shared memory space)
GPGPU-Sim PTX: allocating shared region for "_ZZ12lud_internalPfiiE8peri_col" from 0x400 to 0x800 (shared memory space)
GPGPU-Sim PTX: instruction assembly for function '_Z12lud_internalPfii'...   done.
GPGPU-Sim PTX: finished parsing EMBEDDED .ptx file lud-rodinia-2.5.sm_60.ptx
GPGPU-Sim PTX: Parsing lud-rodinia-2.2.sm_62.ptx
GPGPU-Sim PTX: finished parsing EMBEDDED .ptx file lud-rodinia-2.2.sm_62.ptx
GPGPU-Sim PTX: Parsing lud-rodinia-2.6.sm_62.ptx
GPGPU-Sim PTX: Warning %p0 was declared previous at lud-rodinia-2.5.sm_60.ptx:27 skipping new declaration
GPGPU-Sim PTX: Warning %p1 was declared previous at lud-rodinia-2.5.sm_60.ptx:27 skipping new declaration
GPGPU-Sim PTX: Warning %p2 was declared previous at lud-rodinia-2.5.sm_60.ptx:27 skipping new declaration
GPGPU-Sim PTX: Warning %p3 was declared previous at lud-rodinia-2.5.sm_60.ptx:27 skipping new declaration
GPGPU-Sim PTX: Warning %p4 was declared previous at lud-rodinia-2.5.sm_60.ptx:27 skipping new declaration
GPGPU-Sim PTX: Warning %p5 was declared previous at lud-rodinia-2.5.sm_60.ptx:27 skipping new declaration
GPGPU-Sim PTX: Warning %p6 was declared previous at lud-rodinia-2.5.sm_60.ptx:27 skipping new declaration
GPGPU-Sim PTX: Warning %f0 was declared previous at lud-rodinia-2.5.sm_60.ptx:28 skipping new declaration
GPGPU-Sim PTX: Warning %f1 was declared previous at lud-rodinia-2.5.sm_60.ptx:28 skipping new declaration
GPGPU-Sim PTX: Warning %f2 was declared previous at lud-rodinia-2.5.sm_60.ptx:28 skipping new declaration
GPGPU-Sim PTX: Warning %f3 was declared previous at lud-rodinia-2.5.sm_60.ptx:28 skipping new declaration
GPGPU-Sim PTX: Warning %f4 was declared previous at lud-rodinia-2.5.sm_60.ptx:28 skipping new declaration
GPGPU-Sim PTX: Warning %f5 was declared previous at lud-rodinia-2.5.sm_60.ptx:28 skipping new declaration
GPGPU-Sim PTX: Warning %f6 was declared previous at lud-rodinia-2.5.sm_60.ptx:28 skipping new declaration
GPGPU-Sim PTX: Warning %f7 was declared previous at lud-rodinia-2.5.sm_60.ptx:28 skipping new declaration
GPGPU-Sim PTX: Warning %f8 was declared previous at lud-rodinia-2.5.sm_60.ptx:28 skipping new declaration
GPGPU-Sim PTX: Warning %f9 was declared previous at lud-rodinia-2.5.sm_60.ptx:28 skipping new declaration
GPGPU-Sim PTX: Warning %f10 was declared previous at lud-rodinia-2.5.sm_60.ptx:28 skipping new declaration
GPGPU-Sim PTX: Warning %f11 was declared previous at lud-rodinia-2.5.sm_60.ptx:28 skipping new declaration
GPGPU-Sim PTX: Warning %f12 was declared previous at lud-rodinia-2.5.sm_60.ptx:28 skipping new declaration
GPGPU-Sim PTX: Warning %f13 was declared previous at lud-rodinia-2.5.sm_60.ptx:28 skipping new declaration
GPGPU-Sim PTX: Warning %f14 was declared previous at lud-rodinia-2.5.sm_60.ptx:28 skipping new declaration
GPGPU-Sim PTX: Warning %f15 was declared previous at lud-rodinia-2.5.sm_60.ptx:28 skipping new declaration
GPGPU-Sim PTX: Warning %f16 was declared previous at lud-rodinia-2.5.sm_60.ptx:28 skipping new declaration
GPGPU-Sim PTX: Warning %f17 was declared previous at lud-rodinia-2.5.sm_60.ptx:28 skipping new declaration
GPGPU-Sim PTX: Warning %f18 was declared previous at lud-rodinia-2.5.sm_60.ptx:28 skipping new declaration
GPGPU-Sim PTX: Warning %f19 was declared previous at lud-rodinia-2.5.sm_60.ptx:28 skipping new declaration
GPGPU-Sim PTX: Warning %f20 was declared previous at lud-rodinia-2.5.sm_60.ptx:28 skipping new declaration
GPGPU-Sim PTX: Warning %f21 was declared previous at lud-rodinia-2.5.sm_60.ptx:28 skipping new declaration
GPGPU-Sim PTX: Warning %f22 was declared previous at lud-rodinia-2.5.sm_60.ptx:28 skipping new declaration
GPGPU-Sim PTX: Warning %f23 was declared previous at lud-rodinia-2.5.sm_60.ptx:28 skipping new declaration
GPGPU-Sim PTX: Warning %f24 was declared previous at lud-rodinia-2.5.sm_60.ptx:28 skipping new declaration
GPGPU-Sim PTX: Warning %f25 was declared previous at lud-rodinia-2.5.sm_60.ptx:28 skipping new declaration
GPGPU-Sim PTX: Warning %f26 was declared previous at lud-rodinia-2.5.sm_60.ptx:28 skipping new declaration
GPGPU-Sim PTX: Warning %f27 was declared previous at lud-rodinia-2.5.sm_60.ptx:28 skipping new declaration
GPGPU-Sim PTX: Warning %f28 was declared previous at lud-rodinia-2.5.sm_60.ptx:28 skipping new declaration
GPGPU-Sim PTX: Warning %f29 was declared previous at lud-rodinia-2.5.sm_60.ptx:28 skipping new declaration
GPGPU-Sim PTX: Warning %f30 was declared previous at lud-rodinia-2.5.sm_60.ptx:28 skipping new declaration
GPGPU-Sim PTX: Warning %f31 was declared previous at lud-rodinia-2.5.sm_60.ptx:28 skipping new declaration
GPGPU-Sim PTX: Warning %f32 was declared previous at lud-rodinia-2.5.sm_60.ptx:28 skipping new declaration
GPGPU-Sim PTX: Warning %f33 was declared previous at lud-rodinia-2.5.sm_60.ptx:28 skipping new declaration
GPGPU-Sim PTX: Warning %f34 was declared previous at lud-rodinia-2.5.sm_60.ptx:28 skipping new declaration
GPGPU-Sim PTX: Warning %f35 was declared previous at lud-rodinia-2.5.sm_60.ptx:28 skipping new declaration
GPGPU-Sim PTX: Warning %f36 was declared previous at lud-rodinia-2.5.sm_60.ptx:28 skipping new declaration
GPGPU-Sim PTX: Warning %f37 was declared previous at lud-rodinia-2.5.sm_60.ptx:28 skipping new declaration
GPGPU-Sim PTX: Warning %f38 was declared previous at lud-rodinia-2.5.sm_60.ptx:28 skipping new declaration
GPGPU-Sim PTX: Warning %f39 was declared previous at lud-rodinia-2.5.sm_60.ptx:28 skipping new declaration
GPGPU-Sim PTX: Warning %f40 was declared previous at lud-rodinia-2.5.sm_60.ptx:28 skipping new declaration
GPGPU-Sim PTX: Warning %f41 was declared previous at lud-rodinia-2.5.sm_60.ptx:28 skipping new declaration
GPGPU-Sim PTX: Warning %f42 was declared previous at lud-rodinia-2.5.sm_60.ptx:28 skipping new declaration
GPGPU-Sim PTX: Warning %f43 was declared previous at lud-rodinia-2.5.sm_60.ptx:28 skipping new declaration
GPGPU-Sim PTX: Warning %f44 was declared previous at lud-rodinia-2.5.sm_60.ptx:28 skipping new declaration
GPGPU-Sim PTX: Warning %f45 was declared previous at lud-rodinia-2.5.sm_60.ptx:28 skipping new declaration
GPGPU-Sim PTX: Warning %f46 was declared previous at lud-rodinia-2.5.sm_60.ptx:28 skipping new declaration
GPGPU-Sim PTX: Warning %f47 was declared previous at lud-rodinia-2.5.sm_60.ptx:28 skipping new declaration
GPGPU-Sim PTX: Warning %f48 was declared previous at lud-rodinia-2.5.sm_60.ptx:28 skipping new declaration
GPGPU-Sim PTX: Warning %f49 was declared previous at lud-rodinia-2.5.sm_60.ptx:28 skipping new declaration
GPGPU-Sim PTX: Warning %r0 was declared previous at lud-rodinia-2.5.sm_60.ptx:29 skipping new declaration
GPGPU-Sim PTX: Warning %r1 was declared previous at lud-rodinia-2.5.sm_60.ptx:29 skipping new declaration
GPGPU-Sim PTX: Warning %r2 was declared previous at lud-rodinia-2.5.sm_60.ptx:29 skipping new declaration
GPGPU-Sim PTX: Warning %r3 was declared previous at lud-rodinia-2.5.sm_60.ptx:29 skipping new declaration
GPGPU-Sim PTX: Warning %r4 was declared previous at lud-rodinia-2.5.sm_60.ptx:29 skipping new declaration
GPGPU-Sim PTX: Warning %r5 was declared previous at lud-rodinia-2.5.sm_60.ptx:29 skipping new declaration
GPGPU-Sim PTX: Warning %r6 was declared previous at lud-rodinia-2.5.sm_60.ptx:29 skipping new declaration
GPGPU-Sim PTX: Warning %r7 was declared previous at lud-rodinia-2.5.sm_60.ptx:29 skipping new declaration
GPGPU-Sim PTX: Warning %r8 was declared previous at lud-rodinia-2.5.sm_60.ptx:29 skipping new declaration
GPGPU-Sim PTX: Warning %r9 was declared previous at lud-rodinia-2.5.sm_60.ptx:29 skipping new declaration
GPGPU-Sim PTX: Warning %r10 was declared previous at lud-rodinia-2.5.sm_60.ptx:29 skipping new declaration
GPGPU-Sim PTX: Warning %r11 was declared previous at lud-rodinia-2.5.sm_60.ptx:29 skipping new declaration
GPGPU-Sim PTX: Warning %r12 was declared previous at lud-rodinia-2.5.sm_60.ptx:29 skipping new declaration
GPGPU-Sim PTX: Warning %r13 was declared previous at lud-rodinia-2.5.sm_60.ptx:29 skipping new declaration
GPGPU-Sim PTX: Warning %r14 was declared previous at lud-rodinia-2.5.sm_60.ptx:29 skipping new declaration
GPGPU-Sim PTX: Warning %r15 was declared previous at lud-rodinia-2.5.sm_60.ptx:29 skipping new declaration
GPGPU-Sim PTX: Warning %r16 was declared previous at lud-rodinia-2.5.sm_60.ptx:29 skipping new declaration
GPGPU-Sim PTX: Warning %r17 was declared previous at lud-rodinia-2.5.sm_60.ptx:29 skipping new declaration
GPGPU-Sim PTX: Warning %r18 was declared previous at lud-rodinia-2.5.sm_60.ptx:29 skipping new declaration
GPGPU-Sim PTX: Warning %r19 was declared previous at lud-rodinia-2.5.sm_60.ptx:29 skipping new declaration
GPGPU-Sim PTX: Warning %r20 was declared previous at lud-rodinia-2.5.sm_60.ptx:29 skipping new declaration
GPGPU-Sim PTX: Warning %r21 was declared previous at lud-rodinia-2.5.sm_60.ptx:29 skipping new declaration
GPGPU-Sim PTX: Warning %r22 was declared previous at lud-rodinia-2.5.sm_60.ptx:29 skipping new declaration
GPGPU-Sim PTX: Warning %r23 was declared previous at lud-rodinia-2.5.sm_60.ptx:29 skipping new declaration
GPGPU-Sim PTX: Warning %r24 was declared previous at lud-rodinia-2.5.sm_60.ptx:29 skipping new declaration
GPGPU-Sim PTX: Warning %r25 was declared previous at lud-rodinia-2.5.sm_60.ptx:29 skipping new declaration
GPGPU-Sim PTX: Warning %r26 was declared previous at lud-rodinia-2.5.sm_60.ptx:29 skipping new declaration
GPGPU-Sim PTX: Warning %r27 was declared previous at lud-rodinia-2.5.sm_60.ptx:29 skipping new declaration
GPGPU-Sim PTX: Warning %r28 was declared previous at lud-rodinia-2.5.sm_60.ptx:29 skipping new declaration
GPGPU-Sim PTX: Warning %r29 was declared previous at lud-rodinia-2.5.sm_60.ptx:29 skipping new declaration
GPGPU-Sim PTX: Warning %r30 was declared previous at lud-rodinia-2.5.sm_60.ptx:29 skipping new declaration
GPGPU-Sim PTX: Warning %r31 was declared previous at lud-rodinia-2.5.sm_60.ptx:29 skipping new declaration
GPGPU-Sim PTX: Warning %r32 was declared previous at lud-rodinia-2.5.sm_60.ptx:29 skipping new declaration
GPGPU-Sim PTX: Warning %r33 was declared previous at lud-rodinia-2.5.sm_60.ptx:29 skipping new declaration
GPGPU-Sim PTX: Warning %r34 was declared previous at lud-rodinia-2.5.sm_60.ptx:29 skipping new declaration
GPGPU-Sim PTX: Warning %r35 was declared previous at lud-rodinia-2.5.sm_60.ptx:29 skipping new declaration
GPGPU-Sim PTX: Warning %r36 was declared previous at lud-rodinia-2.5.sm_60.ptx:29 skipping new declaration
GPGPU-Sim PTX: Warning %r37 was declared previous at lud-rodinia-2.5.sm_60.ptx:29 skipping new declaration
GPGPU-Sim PTX: Warning %r38 was declared previous at lud-rodinia-2.5.sm_60.ptx:29 skipping new declaration
GPGPU-Sim PTX: Warning %r39 was declared previous at lud-rodinia-2.5.sm_60.ptx:29 skipping new declaration
GPGPU-Sim PTX: Warning %r40 was declared previous at lud-rodinia-2.5.sm_60.ptx:29 skipping new declaration
GPGPU-Sim PTX: Warning %r41 was declared previous at lud-rodinia-2.5.sm_60.ptx:29 skipping new declaration
GPGPU-Sim PTX: Warning %r42 was declared previous at lud-rodinia-2.5.sm_60.ptx:29 skipping new declaration
GPGPU-Sim PTX: Warning %r43 was declared previous at lud-rodinia-2.5.sm_60.ptx:29 skipping new declaration
GPGPU-Sim PTX: Warning %r44 was declared previous at lud-rodinia-2.5.sm_60.ptx:29 skipping new declaration
GPGPU-Sim PTX: Warning %r45 was declared previous at lud-rodinia-2.5.sm_60.ptx:29 skipping new declaration
GPGPU-Sim PTX: Warning %r46 was declared previous at lud-rodinia-2.5.sm_60.ptx:29 skipping new declaration
GPGPU-Sim PTX: Warning %r47 was declared previous at lud-rodinia-2.5.sm_60.ptx:29 skipping new declaration
GPGPU-Sim PTX: Warning %r48 was declared previous at lud-rodinia-2.5.sm_60.ptx:29 skipping new declaration
GPGPU-Sim PTX: Warning %r49 was declared previous at lud-rodinia-2.5.sm_60.ptx:29 skipping new declaration
GPGPU-Sim PTX: Warning %r50 was declared previous at lud-rodinia-2.5.sm_60.ptx:29 skipping new declaration
GPGPU-Sim PTX: Warning %r51 was declared previous at lud-rodinia-2.5.sm_60.ptx:29 skipping new declaration
GPGPU-Sim PTX: Warning %r52 was declared previous at lud-rodinia-2.5.sm_60.ptx:29 skipping new declaration
GPGPU-Sim PTX: Warning %r53 was declared previous at lud-rodinia-2.5.sm_60.ptx:29 skipping new declaration
GPGPU-Sim PTX: Warning %r54 was declared previous at lud-rodinia-2.5.sm_60.ptx:29 skipping new declaration
GPGPU-Sim PTX: Warning %r55 was declared previous at lud-rodinia-2.5.sm_60.ptx:29 skipping new declaration
GPGPU-Sim PTX: Warning %r56 was declared previous at lud-rodinia-2.5.sm_60.ptx:29 skipping new declaration
GPGPU-Sim PTX: Warning %r57 was declared previous at lud-rodinia-2.5.sm_60.ptx:29 skipping new declaration
GPGPU-Sim PTX: Warning %r58 was declared previous at lud-rodinia-2.5.sm_60.ptx:29 skipping new declaration
GPGPU-Sim PTX: Warning %r59 was declared previous at lud-rodinia-2.5.sm_60.ptx:29 skipping new declaration
GPGPU-Sim PTX: Warning %r60 was declared previous at lud-rodinia-2.5.sm_60.ptx:29 skipping new declaration
GPGPU-Sim PTX: Warning %r61 was declared previous at lud-rodinia-2.5.sm_60.ptx:29 skipping new declaration
GPGPU-Sim PTX: Warning %r62 was declared previous at lud-rodinia-2.5.sm_60.ptx:29 skipping new declaration
GPGPU-Sim PTX: Warning %r63 was declared previous at lud-rodinia-2.5.sm_60.ptx:29 skipping new declaration
GPGPU-Sim PTX: Warning %r64 was declared previous at lud-rodinia-2.5.sm_60.ptx:29 skipping new declaration
GPGPU-Sim PTX: Warning %r65 was declared previous at lud-rodinia-2.5.sm_60.ptx:29 skipping new declaration
GPGPU-Sim PTX: Warning %r66 was declared previous at lud-rodinia-2.5.sm_60.ptx:29 skipping new declaration
GPGPU-Sim PTX: Warning %r67 was declared previous at lud-rodinia-2.5.sm_60.ptx:29 skipping new declaration
GPGPU-Sim PTX: Warning %r68 was declared previous at lud-rodinia-2.5.sm_60.ptx:29 skipping new declaration
GPGPU-Sim PTX: Warning %r69 was declared previous at lud-rodinia-2.5.sm_60.ptx:29 skipping new declaration
GPGPU-Sim PTX: Warning %r70 was declared previous at lud-rodinia-2.5.sm_60.ptx:29 skipping new declaration
GPGPU-Sim PTX: Warning %r71 was declared previous at lud-rodinia-2.5.sm_60.ptx:29 skipping new declaration
GPGPU-Sim PTX: Warning %r72 was declared previous at lud-rodinia-2.5.sm_60.ptx:29 skipping new declaration
GPGPU-Sim PTX: Warning %r73 was declared previous at lud-rodinia-2.5.sm_60.ptx:29 skipping new declaration
GPGPU-Sim PTX: Warning %r74 was declared previous at lud-rodinia-2.5.sm_60.ptx:29 skipping new declaration
GPGPU-Sim PTX: Warning %r75 was declared previous at lud-rodinia-2.5.sm_60.ptx:29 skipping new declaration
GPGPU-Sim PTX: Warning %r76 was declared previous at lud-rodinia-2.5.sm_60.ptx:29 skipping new declaration
GPGPU-Sim PTX: Warning %r77 was declared previous at lud-rodinia-2.5.sm_60.ptx:29 skipping new declaration
GPGPU-Sim PTX: Warning %r78 was declared previous at lud-rodinia-2.5.sm_60.ptx:29 skipping new declaration
GPGPU-Sim PTX: Warning %r79 was declared previous at lud-rodinia-2.5.sm_60.ptx:29 skipping new declaration
GPGPU-Sim PTX: Warning %r80 was declared previous at lud-rodinia-2.5.sm_60.ptx:29 skipping new declaration
GPGPU-Sim PTX: Warning %r81 was declared previous at lud-rodinia-2.5.sm_60.ptx:29 skipping new declaration
GPGPU-Sim PTX: Warning %r82 was declared previous at lud-rodinia-2.5.sm_60.ptx:29 skipping new declaration
GPGPU-Sim PTX: Warning %r83 was declared previous at lud-rodinia-2.5.sm_60.ptx:29 skipping new declaration
GPGPU-Sim PTX: Warning %r84 was declared previous at lud-rodinia-2.5.sm_60.ptx:29 skipping new declaration
GPGPU-Sim PTX: Warning %r85 was declared previous at lud-rodinia-2.5.sm_60.ptx:29 skipping new declaration
GPGPU-Sim PTX: Warning %r86 was declared previous at lud-rodinia-2.5.sm_60.ptx:29 skipping new declaration
GPGPU-Sim PTX: Warning %r87 was declared previous at lud-rodinia-2.5.sm_60.ptx:29 skipping new declaration
GPGPU-Sim PTX: Warning %r88 was declared previous at lud-rodinia-2.5.sm_60.ptx:29 skipping new declaration
GPGPU-Sim PTX: Warning %r89 was declared previous at lud-rodinia-2.5.sm_60.ptx:29 skipping new declaration
GPGPU-Sim PTX: Warning %r90 was declared previous at lud-rodinia-2.5.sm_60.ptx:29 skipping new declaration
GPGPU-Sim PTX: Warning %r91 was declared previous at lud-rodinia-2.5.sm_60.ptx:29 skipping new declaration
GPGPU-Sim PTX: Warning %r92 was declared previous at lud-rodinia-2.5.sm_60.ptx:29 skipping new declaration
GPGPU-Sim PTX: Warning %r93 was declared previous at lud-rodinia-2.5.sm_60.ptx:29 skipping new declaration
GPGPU-Sim PTX: Warning %rd0 was declared previous at lud-rodinia-2.5.sm_60.ptx:30 skipping new declaration
GPGPU-Sim PTX: Warning %rd1 was declared previous at lud-rodinia-2.5.sm_60.ptx:30 skipping new declaration
GPGPU-Sim PTX: Warning %rd2 was declared previous at lud-rodinia-2.5.sm_60.ptx:30 skipping new declaration
GPGPU-Sim PTX: Warning %rd3 was declared previous at lud-rodinia-2.5.sm_60.ptx:30 skipping new declaration
GPGPU-Sim PTX: Warning %rd4 was declared previous at lud-rodinia-2.5.sm_60.ptx:30 skipping new declaration
GPGPU-Sim PTX: Warning %rd5 was declared previous at lud-rodinia-2.5.sm_60.ptx:30 skipping new declaration
GPGPU-Sim PTX: Warning %rd6 was declared previous at lud-rodinia-2.5.sm_60.ptx:30 skipping new declaration
GPGPU-Sim PTX: Warning %rd7 was declared previous at lud-rodinia-2.5.sm_60.ptx:30 skipping new declaration
GPGPU-Sim PTX: Warning %rd8 was declared previous at lud-rodinia-2.5.sm_60.ptx:30 skipping new declaration
GPGPU-Sim PTX: Warning %rd9 was declared previous at lud-rodinia-2.5.sm_60.ptx:30 skipping new declaration
GPGPU-Sim PTX: Warning %rd10 was declared previous at lud-rodinia-2.5.sm_60.ptx:30 skipping new declaration
GPGPU-Sim PTX: Warning %rd11 was declared previous at lud-rodinia-2.5.sm_60.ptx:30 skipping new declaration
GPGPU-Sim PTX: Warning %rd12 was declared previous at lud-rodinia-2.5.sm_60.ptx:30 skipping new declaration
GPGPU-Sim PTX: Warning %rd13 was declared previous at lud-rodinia-2.5.sm_60.ptx:30 skipping new declaration
GPGPU-Sim PTX: Warning %rd14 was declared previous at lud-rodinia-2.5.sm_60.ptx:30 skipping new declaration
GPGPU-Sim PTX: Warning %rd15 was declared previous at lud-rodinia-2.5.sm_60.ptx:30 skipping new declaration
GPGPU-Sim PTX: Warning %rd16 was declared previous at lud-rodinia-2.5.sm_60.ptx:30 skipping new declaration
GPGPU-Sim PTX: Warning %rd17 was declared previous at lud-rodinia-2.5.sm_60.ptx:30 skipping new declaration
GPGPU-Sim PTX: Warning %rd18 was declared previous at lud-rodinia-2.5.sm_60.ptx:30 skipping new declaration
GPGPU-Sim PTX: Warning %rd19 was declared previous at lud-rodinia-2.5.sm_60.ptx:30 skipping new declaration
GPGPU-Sim PTX: Warning %rd20 was declared previous at lud-rodinia-2.5.sm_60.ptx:30 skipping new declaration
GPGPU-Sim PTX: Warning %rd21 was declared previous at lud-rodinia-2.5.sm_60.ptx:30 skipping new declaration
GPGPU-Sim PTX: Warning %rd22 was declared previous at lud-rodinia-2.5.sm_60.ptx:30 skipping new declaration
GPGPU-Sim PTX: Warning %rd23 was declared previous at lud-rodinia-2.5.sm_60.ptx:30 skipping new declaration
GPGPU-Sim PTX: Warning %rd24 was declared previous at lud-rodinia-2.5.sm_60.ptx:30 skipping new declaration
GPGPU-Sim PTX: Warning %rd25 was declared previous at lud-rodinia-2.5.sm_60.ptx:30 skipping new declaration
GPGPU-Sim PTX: Warning %rd26 was declared previous at lud-rodinia-2.5.sm_60.ptx:30 skipping new declaration
GPGPU-Sim PTX: Warning %rd27 was declared previous at lud-rodinia-2.5.sm_60.ptx:30 skipping new declaration
GPGPU-Sim PTX: Warning %rd28 was declared previous at lud-rodinia-2.5.sm_60.ptx:30 skipping new declaration
GPGPU-Sim PTX: Warning %rd29 was declared previous at lud-rodinia-2.5.sm_60.ptx:30 skipping new declaration
GPGPU-Sim PTX: Warning %rd30 was declared previous at lud-rodinia-2.5.sm_60.ptx:30 skipping new declaration
GPGPU-Sim PTX: Warning %rd31 was declared previous at lud-rodinia-2.5.sm_60.ptx:30 skipping new declaration
GPGPU-Sim PTX: Warning %rd32 was declared previous at lud-rodinia-2.5.sm_60.ptx:30 skipping new declaration
GPGPU-Sim PTX: Warning %rd33 was declared previous at lud-rodinia-2.5.sm_60.ptx:30 skipping new declaration
GPGPU-Sim PTX: Warning %rd34 was declared previous at lud-rodinia-2.5.sm_60.ptx:30 skipping new declaration
GPGPU-Sim PTX: Warning %rd35 was declared previous at lud-rodinia-2.5.sm_60.ptx:30 skipping new declaration
GPGPU-Sim PTX: Warning %rd36 was declared previous at lud-rodinia-2.5.sm_60.ptx:30 skipping new declaration
GPGPU-Sim PTX: Warning %rd37 was declared previous at lud-rodinia-2.5.sm_60.ptx:30 skipping new declaration
GPGPU-Sim PTX: Warning %rd38 was declared previous at lud-rodinia-2.5.sm_60.ptx:30 skipping new declaration
GPGPU-Sim PTX: Warning %rd39 was declared previous at lud-rodinia-2.5.sm_60.ptx:30 skipping new declaration
GPGPU-Sim PTX: Warning %rd40 was declared previous at lud-rodinia-2.5.sm_60.ptx:30 skipping new declaration
GPGPU-Sim PTX: Warning %rd41 was declared previous at lud-rodinia-2.5.sm_60.ptx:30 skipping new declaration
GPGPU-Sim PTX: Warning %rd42 was declared previous at lud-rodinia-2.5.sm_60.ptx:30 skipping new declaration
GPGPU-Sim PTX: Warning %rd43 was declared previous at lud-rodinia-2.5.sm_60.ptx:30 skipping new declaration
GPGPU-Sim PTX: Warning %rd44 was declared previous at lud-rodinia-2.5.sm_60.ptx:30 skipping new declaration
GPGPU-Sim PTX: Warning %rd45 was declared previous at lud-rodinia-2.5.sm_60.ptx:30 skipping new declaration
GPGPU-Sim PTX: Warning %rd46 was declared previous at lud-rodinia-2.5.sm_60.ptx:30 skipping new declaration
GPGPU-Sim PTX: Warning %rd47 was declared previous at lud-rodinia-2.5.sm_60.ptx:30 skipping new declaration
GPGPU-Sim PTX: Warning %rd48 was declared previous at lud-rodinia-2.5.sm_60.ptx:30 skipping new declaration
GPGPU-Sim PTX: Warning %rd49 was declared previous at lud-rodinia-2.5.sm_60.ptx:30 skipping new declaration
GPGPU-Sim PTX: Warning %rd50 was declared previous at lud-rodinia-2.5.sm_60.ptx:30 skipping new declaration
GPGPU-Sim PTX: Warning %rd51 was declared previous at lud-rodinia-2.5.sm_60.ptx:30 skipping new declaration
GPGPU-Sim PTX: Warning %rd52 was declared previous at lud-rodinia-2.5.sm_60.ptx:30 skipping new declaration
GPGPU-Sim PTX: Warning %rd53 was declared previous at lud-rodinia-2.5.sm_60.ptx:30 skipping new declaration
GPGPU-Sim PTX: Warning %rd54 was declared previous at lud-rodinia-2.5.sm_60.ptx:30 skipping new declaration
GPGPU-Sim PTX: Warning %rd55 was declared previous at lud-rodinia-2.5.sm_60.ptx:30 skipping new declaration
GPGPU-Sim PTX: Warning %rd56 was declared previous at lud-rodinia-2.5.sm_60.ptx:30 skipping new declaration
GPGPU-Sim PTX: Warning %rd57 was declared previous at lud-rodinia-2.5.sm_60.ptx:30 skipping new declaration
GPGPU-Sim PTX: Warning %rd58 was declared previous at lud-rodinia-2.5.sm_60.ptx:30 skipping new declaration
GPGPU-Sim PTX: Warning %rd59 was declared previous at lud-rodinia-2.5.sm_60.ptx:30 skipping new declaration
GPGPU-Sim PTX: Warning %rd60 was declared previous at lud-rodinia-2.5.sm_60.ptx:30 skipping new declaration
GPGPU-Sim PTX: Warning %rd61 was declared previous at lud-rodinia-2.5.sm_60.ptx:30 skipping new declaration
GPGPU-Sim PTX: Warning %rd62 was declared previous at lud-rodinia-2.5.sm_60.ptx:30 skipping new declaration
GPGPU-Sim PTX: Warning %rd63 was declared previous at lud-rodinia-2.5.sm_60.ptx:30 skipping new declaration
GPGPU-Sim PTX: Warning %rd64 was declared previous at lud-rodinia-2.5.sm_60.ptx:30 skipping new declaration
GPGPU-Sim PTX: Warning _ZZ12lud_diagonalPfiiE6shadow was declared previous at lud-rodinia-2.5.sm_60.ptx:32 skipping new declaration
GPGPU-Sim PTX: instruction assembly for function '_Z12lud_diagonalPfii'...   done.
GPGPU-Sim PTX: Warning %p0 was declared previous at lud-rodinia-2.5.sm_60.ptx:282 skipping new declaration
GPGPU-Sim PTX: Warning %p1 was declared previous at lud-rodinia-2.5.sm_60.ptx:282 skipping new declaration
GPGPU-Sim PTX: Warning %p2 was declared previous at lud-rodinia-2.5.sm_60.ptx:282 skipping new declaration
GPGPU-Sim PTX: Warning %p3 was declared previous at lud-rodinia-2.5.sm_60.ptx:282 skipping new declaration
GPGPU-Sim PTX: Warning %f0 was declared previous at lud-rodinia-2.5.sm_60.ptx:283 skipping new declaration
GPGPU-Sim PTX: Warning %f1 was declared previous at lud-rodinia-2.5.sm_60.ptx:283 skipping new declaration
GPGPU-Sim PTX: Warning %f2 was declared previous at lud-rodinia-2.5.sm_60.ptx:283 skipping new declaration
GPGPU-Sim PTX: Warning %f3 was declared previous at lud-rodinia-2.5.sm_60.ptx:283 skipping new declaration
GPGPU-Sim PTX: Warning %f4 was declared previous at lud-rodinia-2.5.sm_60.ptx:283 skipping new declaration
GPGPU-Sim PTX: Warning %f5 was declared previous at lud-rodinia-2.5.sm_60.ptx:283 skipping new declaration
GPGPU-Sim PTX: Warning %f6 was declared previous at lud-rodinia-2.5.sm_60.ptx:283 skipping new declaration
GPGPU-Sim PTX: Warning %f7 was declared previous at lud-rodinia-2.5.sm_60.ptx:283 skipping new declaration
GPGPU-Sim PTX: Warning %f8 was declared previous at lud-rodinia-2.5.sm_60.ptx:283 skipping new declaration
GPGPU-Sim PTX: Warning %f9 was declared previous at lud-rodinia-2.5.sm_60.ptx:283 skipping new declaration
GPGPU-Sim PTX: Warning %f10 was declared previous at lud-rodinia-2.5.sm_60.ptx:283 skipping new declaration
GPGPU-Sim PTX: Warning %f11 was declared previous at lud-rodinia-2.5.sm_60.ptx:283 skipping new declaration
GPGPU-Sim PTX: Warning %f12 was declared previous at lud-rodinia-2.5.sm_60.ptx:283 skipping new declaration
GPGPU-Sim PTX: Warning %f13 was declared previous at lud-rodinia-2.5.sm_60.ptx:283 skipping new declaration
GPGPU-Sim PTX: Warning %f14 was declared previous at lud-rodinia-2.5.sm_60.ptx:283 skipping new declaration
GPGPU-Sim PTX: Warning %f15 was declared previous at lud-rodinia-2.5.sm_60.ptx:283 skipping new declaration
GPGPU-Sim PTX: Warning %f16 was declared previous at lud-rodinia-2.5.sm_60.ptx:283 skipping new declaration
GPGPU-Sim PTX: Warning %f17 was declared previous at lud-rodinia-2.5.sm_60.ptx:283 skipping new declaration
GPGPU-Sim PTX: Warning %f18 was declared previous at lud-rodinia-2.5.sm_60.ptx:283 skipping new declaration
GPGPU-Sim PTX: Warning %f19 was declared previous at lud-rodinia-2.5.sm_60.ptx:283 skipping new declaration
GPGPU-Sim PTX: Warning %f20 was declared previous at lud-rodinia-2.5.sm_60.ptx:283 skipping new declaration
GPGPU-Sim PTX: Warning %f21 was declared previous at lud-rodinia-2.5.sm_60.ptx:283 skipping new declaration
GPGPU-Sim PTX: Warning %f22 was declared previous at lud-rodinia-2.5.sm_60.ptx:283 skipping new declaration
GPGPU-Sim PTX: Warning %f23 was declared previous at lud-rodinia-2.5.sm_60.ptx:283 skipping new declaration
GPGPU-Sim PTX: Warning %f24 was declared previous at lud-rodinia-2.5.sm_60.ptx:283 skipping new declaration
GPGPU-Sim PTX: Warning %f25 was declared previous at lud-rodinia-2.5.sm_60.ptx:283 skipping new declaration
GPGPU-Sim PTX: Warning %f26 was declared previous at lud-rodinia-2.5.sm_60.ptx:283 skipping new declaration
GPGPU-Sim PTX: Warning %f27 was declared previous at lud-rodinia-2.5.sm_60.ptx:283 skipping new declaration
GPGPU-Sim PTX: Warning %f28 was declared previous at lud-rodinia-2.5.sm_60.ptx:283 skipping new declaration
GPGPU-Sim PTX: Warning %f29 was declared previous at lud-rodinia-2.5.sm_60.ptx:283 skipping new declaration
GPGPU-Sim PTX: Warning %f30 was declared previous at lud-rodinia-2.5.sm_60.ptx:283 skipping new declaration
GPGPU-Sim PTX: Warning %f31 was declared previous at lud-rodinia-2.5.sm_60.ptx:283 skipping new declaration
GPGPU-Sim PTX: Warning %f32 was declared previous at lud-rodinia-2.5.sm_60.ptx:283 skipping new declaration
GPGPU-Sim PTX: Warning %f33 was declared previous at lud-rodinia-2.5.sm_60.ptx:283 skipping new declaration
GPGPU-Sim PTX: Warning %f34 was declared previous at lud-rodinia-2.5.sm_60.ptx:283 skipping new declaration
GPGPU-Sim PTX: Warning %f35 was declared previous at lud-rodinia-2.5.sm_60.ptx:283 skipping new declaration
GPGPU-Sim PTX: Warning %f36 was declared previous at lud-rodinia-2.5.sm_60.ptx:283 skipping new declaration
GPGPU-Sim PTX: Warning %f37 was declared previous at lud-rodinia-2.5.sm_60.ptx:283 skipping new declaration
GPGPU-Sim PTX: Warning %f38 was declared previous at lud-rodinia-2.5.sm_60.ptx:283 skipping new declaration
GPGPU-Sim PTX: Warning %f39 was declared previous at lud-rodinia-2.5.sm_60.ptx:283 skipping new declaration
GPGPU-Sim PTX: Warning %f40 was declared previous at lud-rodinia-2.5.sm_60.ptx:283 skipping new declaration
GPGPU-Sim PTX: Warning %f41 was declared previous at lud-rodinia-2.5.sm_60.ptx:283 skipping new declaration
GPGPU-Sim PTX: Warning %f42 was declared previous at lud-rodinia-2.5.sm_60.ptx:283 skipping new declaration
GPGPU-Sim PTX: Warning %f43 was declared previous at lud-rodinia-2.5.sm_60.ptx:283 skipping new declaration
GPGPU-Sim PTX: Warning %f44 was declared previous at lud-rodinia-2.5.sm_60.ptx:283 skipping new declaration
GPGPU-Sim PTX: Warning %f45 was declared previous at lud-rodinia-2.5.sm_60.ptx:283 skipping new declaration
GPGPU-Sim PTX: Warning %f46 was declared previous at lud-rodinia-2.5.sm_60.ptx:283 skipping new declaration
GPGPU-Sim PTX: Warning %f47 was declared previous at lud-rodinia-2.5.sm_60.ptx:283 skipping new declaration
GPGPU-Sim PTX: Warning %f48 was declared previous at lud-rodinia-2.5.sm_60.ptx:283 skipping new declaration
GPGPU-Sim PTX: Warning %f49 was declared previous at lud-rodinia-2.5.sm_60.ptx:283 skipping new declaration
GPGPU-Sim PTX: Warning %f50 was declared previous at lud-rodinia-2.5.sm_60.ptx:283 skipping new declaration
GPGPU-Sim PTX: Warning %f51 was declared previous at lud-rodinia-2.5.sm_60.ptx:283 skipping new declaration
GPGPU-Sim PTX: Warning %f52 was declared previous at lud-rodinia-2.5.sm_60.ptx:283 skipping new declaration
GPGPU-Sim PTX: Warning %f53 was declared previous at lud-rodinia-2.5.sm_60.ptx:283 skipping new declaration
GPGPU-Sim PTX: Warning %f54 was declared previous at lud-rodinia-2.5.sm_60.ptx:283 skipping new declaration
GPGPU-Sim PTX: Warning %f55 was declared previous at lud-rodinia-2.5.sm_60.ptx:283 skipping new declaration
GPGPU-Sim PTX: Warning %f56 was declared previous at lud-rodinia-2.5.sm_60.ptx:283 skipping new declaration
GPGPU-Sim PTX: Warning %f57 was declared previous at lud-rodinia-2.5.sm_60.ptx:283 skipping new declaration
GPGPU-Sim PTX: Warning %f58 was declared previous at lud-rodinia-2.5.sm_60.ptx:283 skipping new declaration
GPGPU-Sim PTX: Warning %f59 was declared previous at lud-rodinia-2.5.sm_60.ptx:283 skipping new declaration
GPGPU-Sim PTX: Warning %f60 was declared previous at lud-rodinia-2.5.sm_60.ptx:283 skipping new declaration
GPGPU-Sim PTX: Warning %f61 was declared previous at lud-rodinia-2.5.sm_60.ptx:283 skipping new declaration
GPGPU-Sim PTX: Warning %f62 was declared previous at lud-rodinia-2.5.sm_60.ptx:283 skipping new declaration
GPGPU-Sim PTX: Warning %f63 was declared previous at lud-rodinia-2.5.sm_60.ptx:283 skipping new declaration
GPGPU-Sim PTX: Warning %f64 was declared previous at lud-rodinia-2.5.sm_60.ptx:283 skipping new declaration
GPGPU-Sim PTX: Warning %f65 was declared previous at lud-rodinia-2.5.sm_60.ptx:283 skipping new declaration
GPGPU-Sim PTX: Warning %f66 was declared previous at lud-rodinia-2.5.sm_60.ptx:283 skipping new declaration
GPGPU-Sim PTX: Warning %f67 was declared previous at lud-rodinia-2.5.sm_60.ptx:283 skipping new declaration
GPGPU-Sim PTX: Warning %f68 was declared previous at lud-rodinia-2.5.sm_60.ptx:283 skipping new declaration
GPGPU-Sim PTX: Warning %f69 was declared previous at lud-rodinia-2.5.sm_60.ptx:283 skipping new declaration
GPGPU-Sim PTX: Warning %f70 was declared previous at lud-rodinia-2.5.sm_60.ptx:283 skipping new declaration
GPGPU-Sim PTX: Warning %f71 was declared previous at lud-rodinia-2.5.sm_60.ptx:283 skipping new declaration
GPGPU-Sim PTX: Warning %f72 was declared previous at lud-rodinia-2.5.sm_60.ptx:283 skipping new declaration
GPGPU-Sim PTX: Warning %f73 was declared previous at lud-rodinia-2.5.sm_60.ptx:283 skipping new declaration
GPGPU-Sim PTX: Warning %f74 was declared previous at lud-rodinia-2.5.sm_60.ptx:283 skipping new declaration
GPGPU-Sim PTX: Warning %f75 was declared previous at lud-rodinia-2.5.sm_60.ptx:283 skipping new declaration
GPGPU-Sim PTX: Warning %f76 was declared previous at lud-rodinia-2.5.sm_60.ptx:283 skipping new declaration
GPGPU-Sim PTX: Warning %f77 was declared previous at lud-rodinia-2.5.sm_60.ptx:283 skipping new declaration
GPGPU-Sim PTX: Warning %f78 was declared previous at lud-rodinia-2.5.sm_60.ptx:283 skipping new declaration
GPGPU-Sim PTX: Warning %f79 was declared previous at lud-rodinia-2.5.sm_60.ptx:283 skipping new declaration
GPGPU-Sim PTX: Warning %f80 was declared previous at lud-rodinia-2.5.sm_60.ptx:283 skipping new declaration
GPGPU-Sim PTX: Warning %f81 was declared previous at lud-rodinia-2.5.sm_60.ptx:283 skipping new declaration
GPGPU-Sim PTX: Warning %f82 was declared previous at lud-rodinia-2.5.sm_60.ptx:283 skipping new declaration
GPGPU-Sim PTX: Warning %f83 was declared previous at lud-rodinia-2.5.sm_60.ptx:283 skipping new declaration
GPGPU-Sim PTX: Warning %f84 was declared previous at lud-rodinia-2.5.sm_60.ptx:283 skipping new declaration
GPGPU-Sim PTX: Warning %f85 was declared previous at lud-rodinia-2.5.sm_60.ptx:283 skipping new declaration
GPGPU-Sim PTX: Warning %f86 was declared previous at lud-rodinia-2.5.sm_60.ptx:283 skipping new declaration
GPGPU-Sim PTX: Warning %f87 was declared previous at lud-rodinia-2.5.sm_60.ptx:283 skipping new declaration
GPGPU-Sim PTX: Warning %f88 was declared previous at lud-rodinia-2.5.sm_60.ptx:283 skipping new declaration
GPGPU-Sim PTX: Warning %f89 was declared previous at lud-rodinia-2.5.sm_60.ptx:283 skipping new declaration
GPGPU-Sim PTX: Warning %f90 was declared previous at lud-rodinia-2.5.sm_60.ptx:283 skipping new declaration
GPGPU-Sim PTX: Warning %f91 was declared previous at lud-rodinia-2.5.sm_60.ptx:283 skipping new declaration
GPGPU-Sim PTX: Warning %f92 was declared previous at lud-rodinia-2.5.sm_60.ptx:283 skipping new declaration
GPGPU-Sim PTX: Warning %f93 was declared previous at lud-rodinia-2.5.sm_60.ptx:283 skipping new declaration
GPGPU-Sim PTX: Warning %f94 was declared previous at lud-rodinia-2.5.sm_60.ptx:283 skipping new declaration
GPGPU-Sim PTX: Warning %f95 was declared previous at lud-rodinia-2.5.sm_60.ptx:283 skipping new declaration
GPGPU-Sim PTX: Warning %f96 was declared previous at lud-rodinia-2.5.sm_60.ptx:283 skipping new declaration
GPGPU-Sim PTX: Warning %f97 was declared previous at lud-rodinia-2.5.sm_60.ptx:283 skipping new declaration
GPGPU-Sim PTX: Warning %f98 was declared previous at lud-rodinia-2.5.sm_60.ptx:283 skipping new declaration
GPGPU-Sim PTX: Warning %f99 was declared previous at lud-rodinia-2.5.sm_60.ptx:283 skipping new declaration
GPGPU-Sim PTX: Warning %f100 was declared previous at lud-rodinia-2.5.sm_60.ptx:283 skipping new declaration
GPGPU-Sim PTX: Warning %f101 was declared previous at lud-rodinia-2.5.sm_60.ptx:283 skipping new declaration
GPGPU-Sim PTX: Warning %f102 was declared previous at lud-rodinia-2.5.sm_60.ptx:283 skipping new declaration
GPGPU-Sim PTX: Warning %f103 was declared previous at lud-rodinia-2.5.sm_60.ptx:283 skipping new declaration
GPGPU-Sim PTX: Warning %f104 was declared previous at lud-rodinia-2.5.sm_60.ptx:283 skipping new declaration
GPGPU-Sim PTX: Warning %f105 was declared previous at lud-rodinia-2.5.sm_60.ptx:283 skipping new declaration
GPGPU-Sim PTX: Warning %f106 was declared previous at lud-rodinia-2.5.sm_60.ptx:283 skipping new declaration
GPGPU-Sim PTX: Warning %f107 was declared previous at lud-rodinia-2.5.sm_60.ptx:283 skipping new declaration
GPGPU-Sim PTX: Warning %f108 was declared previous at lud-rodinia-2.5.sm_60.ptx:283 skipping new declaration
GPGPU-Sim PTX: Warning %f109 was declared previous at lud-rodinia-2.5.sm_60.ptx:283 skipping new declaration
GPGPU-Sim PTX: Warning %f110 was declared previous at lud-rodinia-2.5.sm_60.ptx:283 skipping new declaration
GPGPU-Sim PTX: Warning %f111 was declared previous at lud-rodinia-2.5.sm_60.ptx:283 skipping new declaration
GPGPU-Sim PTX: Warning %f112 was declared previous at lud-rodinia-2.5.sm_60.ptx:283 skipping new declaration
GPGPU-Sim PTX: Warning %f113 was declared previous at lud-rodinia-2.5.sm_60.ptx:283 skipping new declaration
GPGPU-Sim PTX: Warning %f114 was declared previous at lud-rodinia-2.5.sm_60.ptx:283 skipping new declaration
GPGPU-Sim PTX: Warning %f115 was declared previous at lud-rodinia-2.5.sm_60.ptx:283 skipping new declaration
GPGPU-Sim PTX: Warning %f116 was declared previous at lud-rodinia-2.5.sm_60.ptx:283 skipping new declaration
GPGPU-Sim PTX: Warning %f117 was declared previous at lud-rodinia-2.5.sm_60.ptx:283 skipping new declaration
GPGPU-Sim PTX: Warning %f118 was declared previous at lud-rodinia-2.5.sm_60.ptx:283 skipping new declaration
GPGPU-Sim PTX: Warning %f119 was declared previous at lud-rodinia-2.5.sm_60.ptx:283 skipping new declaration
GPGPU-Sim PTX: Warning %f120 was declared previous at lud-rodinia-2.5.sm_60.ptx:283 skipping new declaration
GPGPU-Sim PTX: Warning %f121 was declared previous at lud-rodinia-2.5.sm_60.ptx:283 skipping new declaration
GPGPU-Sim PTX: Warning %f122 was declared previous at lud-rodinia-2.5.sm_60.ptx:283 skipping new declaration
GPGPU-Sim PTX: Warning %f123 was declared previous at lud-rodinia-2.5.sm_60.ptx:283 skipping new declaration
GPGPU-Sim PTX: Warning %f124 was declared previous at lud-rodinia-2.5.sm_60.ptx:283 skipping new declaration
GPGPU-Sim PTX: Warning %f125 was declared previous at lud-rodinia-2.5.sm_60.ptx:283 skipping new declaration
GPGPU-Sim PTX: Warning %f126 was declared previous at lud-rodinia-2.5.sm_60.ptx:283 skipping new declaration
GPGPU-Sim PTX: Warning %f127 was declared previous at lud-rodinia-2.5.sm_60.ptx:283 skipping new declaration
GPGPU-Sim PTX: Warning %f128 was declared previous at lud-rodinia-2.5.sm_60.ptx:283 skipping new declaration
GPGPU-Sim PTX: Warning %f129 was declared previous at lud-rodinia-2.5.sm_60.ptx:283 skipping new declaration
GPGPU-Sim PTX: Warning %f130 was declared previous at lud-rodinia-2.5.sm_60.ptx:283 skipping new declaration
GPGPU-Sim PTX: Warning %f131 was declared previous at lud-rodinia-2.5.sm_60.ptx:283 skipping new declaration
GPGPU-Sim PTX: Warning %f132 was declared previous at lud-rodinia-2.5.sm_60.ptx:283 skipping new declaration
GPGPU-Sim PTX: Warning %f133 was declared previous at lud-rodinia-2.5.sm_60.ptx:283 skipping new declaration
GPGPU-Sim PTX: Warning %f134 was declared previous at lud-rodinia-2.5.sm_60.ptx:283 skipping new declaration
GPGPU-Sim PTX: Warning %f135 was declared previous at lud-rodinia-2.5.sm_60.ptx:283 skipping new declaration
GPGPU-Sim PTX: Warning %f136 was declared previous at lud-rodinia-2.5.sm_60.ptx:283 skipping new declaration
GPGPU-Sim PTX: Warning %f137 was declared previous at lud-rodinia-2.5.sm_60.ptx:283 skipping new declaration
GPGPU-Sim PTX: Warning %f138 was declared previous at lud-rodinia-2.5.sm_60.ptx:283 skipping new declaration
GPGPU-Sim PTX: Warning %f139 was declared previous at lud-rodinia-2.5.sm_60.ptx:283 skipping new declaration
GPGPU-Sim PTX: Warning %f140 was declared previous at lud-rodinia-2.5.sm_60.ptx:283 skipping new declaration
GPGPU-Sim PTX: Warning %f141 was declared previous at lud-rodinia-2.5.sm_60.ptx:283 skipping new declaration
GPGPU-Sim PTX: Warning %f142 was declared previous at lud-rodinia-2.5.sm_60.ptx:283 skipping new declaration
GPGPU-Sim PTX: Warning %f143 was declared previous at lud-rodinia-2.5.sm_60.ptx:283 skipping new declaration
GPGPU-Sim PTX: Warning %f144 was declared previous at lud-rodinia-2.5.sm_60.ptx:283 skipping new declaration
GPGPU-Sim PTX: Warning %f145 was declared previous at lud-rodinia-2.5.sm_60.ptx:283 skipping new declaration
GPGPU-Sim PTX: Warning %f146 was declared previous at lud-rodinia-2.5.sm_60.ptx:283 skipping new declaration
GPGPU-Sim PTX: Warning %f147 was declared previous at lud-rodinia-2.5.sm_60.ptx:283 skipping new declaration
GPGPU-Sim PTX: Warning %f148 was declared previous at lud-rodinia-2.5.sm_60.ptx:283 skipping new declaration
GPGPU-Sim PTX: Warning %f149 was declared previous at lud-rodinia-2.5.sm_60.ptx:283 skipping new declaration
GPGPU-Sim PTX: Warning %f150 was declared previous at lud-rodinia-2.5.sm_60.ptx:283 skipping new declaration
GPGPU-Sim PTX: Warning %f151 was declared previous at lud-rodinia-2.5.sm_60.ptx:283 skipping new declaration
GPGPU-Sim PTX: Warning %f152 was declared previous at lud-rodinia-2.5.sm_60.ptx:283 skipping new declaration
GPGPU-Sim PTX: Warning %f153 was declared previous at lud-rodinia-2.5.sm_60.ptx:283 skipping new declaration
GPGPU-Sim PTX: Warning %f154 was declared previous at lud-rodinia-2.5.sm_60.ptx:283 skipping new declaration
GPGPU-Sim PTX: Warning %f155 was declared previous at lud-rodinia-2.5.sm_60.ptx:283 skipping new declaration
GPGPU-Sim PTX: Warning %f156 was declared previous at lud-rodinia-2.5.sm_60.ptx:283 skipping new declaration
GPGPU-Sim PTX: Warning %f157 was declared previous at lud-rodinia-2.5.sm_60.ptx:283 skipping new declaration
GPGPU-Sim PTX: Warning %f158 was declared previous at lud-rodinia-2.5.sm_60.ptx:283 skipping new declaration
GPGPU-Sim PTX: Warning %f159 was declared previous at lud-rodinia-2.5.sm_60.ptx:283 skipping new declaration
GPGPU-Sim PTX: Warning %f160 was declared previous at lud-rodinia-2.5.sm_60.ptx:283 skipping new declaration
GPGPU-Sim PTX: Warning %f161 was declared previous at lud-rodinia-2.5.sm_60.ptx:283 skipping new declaration
GPGPU-Sim PTX: Warning %f162 was declared previous at lud-rodinia-2.5.sm_60.ptx:283 skipping new declaration
GPGPU-Sim PTX: Warning %f163 was declared previous at lud-rodinia-2.5.sm_60.ptx:283 skipping new declaration
GPGPU-Sim PTX: Warning %f164 was declared previous at lud-rodinia-2.5.sm_60.ptx:283 skipping new declaration
GPGPU-Sim PTX: Warning %f165 was declared previous at lud-rodinia-2.5.sm_60.ptx:283 skipping new declaration
GPGPU-Sim PTX: Warning %f166 was declared previous at lud-rodinia-2.5.sm_60.ptx:283 skipping new declaration
GPGPU-Sim PTX: Warning %f167 was declared previous at lud-rodinia-2.5.sm_60.ptx:283 skipping new declaration
GPGPU-Sim PTX: Warning %f168 was declared previous at lud-rodinia-2.5.sm_60.ptx:283 skipping new declaration
GPGPU-Sim PTX: Warning %f169 was declared previous at lud-rodinia-2.5.sm_60.ptx:283 skipping new declaration
GPGPU-Sim PTX: Warning %f170 was declared previous at lud-rodinia-2.5.sm_60.ptx:283 skipping new declaration
GPGPU-Sim PTX: Warning %f171 was declared previous at lud-rodinia-2.5.sm_60.ptx:283 skipping new declaration
GPGPU-Sim PTX: Warning %f172 was declared previous at lud-rodinia-2.5.sm_60.ptx:283 skipping new declaration
GPGPU-Sim PTX: Warning %f173 was declared previous at lud-rodinia-2.5.sm_60.ptx:283 skipping new declaration
GPGPU-Sim PTX: Warning %f174 was declared previous at lud-rodinia-2.5.sm_60.ptx:283 skipping new declaration
GPGPU-Sim PTX: Warning %f175 was declared previous at lud-rodinia-2.5.sm_60.ptx:283 skipping new declaration
GPGPU-Sim PTX: Warning %f176 was declared previous at lud-rodinia-2.5.sm_60.ptx:283 skipping new declaration
GPGPU-Sim PTX: Warning %f177 was declared previous at lud-rodinia-2.5.sm_60.ptx:283 skipping new declaration
GPGPU-Sim PTX: Warning %f178 was declared previous at lud-rodinia-2.5.sm_60.ptx:283 skipping new declaration
GPGPU-Sim PTX: Warning %f179 was declared previous at lud-rodinia-2.5.sm_60.ptx:283 skipping new declaration
GPGPU-Sim PTX: Warning %f180 was declared previous at lud-rodinia-2.5.sm_60.ptx:283 skipping new declaration
GPGPU-Sim PTX: Warning %f181 was declared previous at lud-rodinia-2.5.sm_60.ptx:283 skipping new declaration
GPGPU-Sim PTX: Warning %f182 was declared previous at lud-rodinia-2.5.sm_60.ptx:283 skipping new declaration
GPGPU-Sim PTX: Warning %f183 was declared previous at lud-rodinia-2.5.sm_60.ptx:283 skipping new declaration
GPGPU-Sim PTX: Warning %f184 was declared previous at lud-rodinia-2.5.sm_60.ptx:283 skipping new declaration
GPGPU-Sim PTX: Warning %f185 was declared previous at lud-rodinia-2.5.sm_60.ptx:283 skipping new declaration
GPGPU-Sim PTX: Warning %f186 was declared previous at lud-rodinia-2.5.sm_60.ptx:283 skipping new declaration
GPGPU-Sim PTX: Warning %f187 was declared previous at lud-rodinia-2.5.sm_60.ptx:283 skipping new declaration
GPGPU-Sim PTX: Warning %f188 was declared previous at lud-rodinia-2.5.sm_60.ptx:283 skipping new declaration
GPGPU-Sim PTX: Warning %f189 was declared previous at lud-rodinia-2.5.sm_60.ptx:283 skipping new declaration
GPGPU-Sim PTX: Warning %f190 was declared previous at lud-rodinia-2.5.sm_60.ptx:283 skipping new declaration
GPGPU-Sim PTX: Warning %f191 was declared previous at lud-rodinia-2.5.sm_60.ptx:283 skipping new declaration
GPGPU-Sim PTX: Warning %f192 was declared previous at lud-rodinia-2.5.sm_60.ptx:283 skipping new declaration
GPGPU-Sim PTX: Warning %f193 was declared previous at lud-rodinia-2.5.sm_60.ptx:283 skipping new declaration
GPGPU-Sim PTX: Warning %f194 was declared previous at lud-rodinia-2.5.sm_60.ptx:283 skipping new declaration
GPGPU-Sim PTX: Warning %f195 was declared previous at lud-rodinia-2.5.sm_60.ptx:283 skipping new declaration
GPGPU-Sim PTX: Warning %f196 was declared previous at lud-rodinia-2.5.sm_60.ptx:283 skipping new declaration
GPGPU-Sim PTX: Warning %f197 was declared previous at lud-rodinia-2.5.sm_60.ptx:283 skipping new declaration
GPGPU-Sim PTX: Warning %f198 was declared previous at lud-rodinia-2.5.sm_60.ptx:283 skipping new declaration
GPGPU-Sim PTX: Warning %f199 was declared previous at lud-rodinia-2.5.sm_60.ptx:283 skipping new declaration
GPGPU-Sim PTX: Warning %f200 was declared previous at lud-rodinia-2.5.sm_60.ptx:283 skipping new declaration
GPGPU-Sim PTX: Warning %f201 was declared previous at lud-rodinia-2.5.sm_60.ptx:283 skipping new declaration
GPGPU-Sim PTX: Warning %f202 was declared previous at lud-rodinia-2.5.sm_60.ptx:283 skipping new declaration
GPGPU-Sim PTX: Warning %f203 was declared previous at lud-rodinia-2.5.sm_60.ptx:283 skipping new declaration
GPGPU-Sim PTX: Warning %f204 was declared previous at lud-rodinia-2.5.sm_60.ptx:283 skipping new declaration
GPGPU-Sim PTX: Warning %f205 was declared previous at lud-rodinia-2.5.sm_60.ptx:283 skipping new declaration
GPGPU-Sim PTX: Warning %f206 was declared previous at lud-rodinia-2.5.sm_60.ptx:283 skipping new declaration
GPGPU-Sim PTX: Warning %f207 was declared previous at lud-rodinia-2.5.sm_60.ptx:283 skipping new declaration
GPGPU-Sim PTX: Warning %f208 was declared previous at lud-rodinia-2.5.sm_60.ptx:283 skipping new declaration
GPGPU-Sim PTX: Warning %f209 was declared previous at lud-rodinia-2.5.sm_60.ptx:283 skipping new declaration
GPGPU-Sim PTX: Warning %f210 was declared previous at lud-rodinia-2.5.sm_60.ptx:283 skipping new declaration
GPGPU-Sim PTX: Warning %f211 was declared previous at lud-rodinia-2.5.sm_60.ptx:283 skipping new declaration
GPGPU-Sim PTX: Warning %f212 was declared previous at lud-rodinia-2.5.sm_60.ptx:283 skipping new declaration
GPGPU-Sim PTX: Warning %f213 was declared previous at lud-rodinia-2.5.sm_60.ptx:283 skipping new declaration
GPGPU-Sim PTX: Warning %f214 was declared previous at lud-rodinia-2.5.sm_60.ptx:283 skipping new declaration
GPGPU-Sim PTX: Warning %f215 was declared previous at lud-rodinia-2.5.sm_60.ptx:283 skipping new declaration
GPGPU-Sim PTX: Warning %f216 was declared previous at lud-rodinia-2.5.sm_60.ptx:283 skipping new declaration
GPGPU-Sim PTX: Warning %f217 was declared previous at lud-rodinia-2.5.sm_60.ptx:283 skipping new declaration
GPGPU-Sim PTX: Warning %f218 was declared previous at lud-rodinia-2.5.sm_60.ptx:283 skipping new declaration
GPGPU-Sim PTX: Warning %f219 was declared previous at lud-rodinia-2.5.sm_60.ptx:283 skipping new declaration
GPGPU-Sim PTX: Warning %f220 was declared previous at lud-rodinia-2.5.sm_60.ptx:283 skipping new declaration
GPGPU-Sim PTX: Warning %f221 was declared previous at lud-rodinia-2.5.sm_60.ptx:283 skipping new declaration
GPGPU-Sim PTX: Warning %f222 was declared previous at lud-rodinia-2.5.sm_60.ptx:283 skipping new declaration
GPGPU-Sim PTX: Warning %f223 was declared previous at lud-rodinia-2.5.sm_60.ptx:283 skipping new declaration
GPGPU-Sim PTX: Warning %f224 was declared previous at lud-rodinia-2.5.sm_60.ptx:283 skipping new declaration
GPGPU-Sim PTX: Warning %f225 was declared previous at lud-rodinia-2.5.sm_60.ptx:283 skipping new declaration
GPGPU-Sim PTX: Warning %f226 was declared previous at lud-rodinia-2.5.sm_60.ptx:283 skipping new declaration
GPGPU-Sim PTX: Warning %f227 was declared previous at lud-rodinia-2.5.sm_60.ptx:283 skipping new declaration
GPGPU-Sim PTX: Warning %f228 was declared previous at lud-rodinia-2.5.sm_60.ptx:283 skipping new declaration
GPGPU-Sim PTX: Warning %f229 was declared previous at lud-rodinia-2.5.sm_60.ptx:283 skipping new declaration
GPGPU-Sim PTX: Warning %f230 was declared previous at lud-rodinia-2.5.sm_60.ptx:283 skipping new declaration
GPGPU-Sim PTX: Warning %f231 was declared previous at lud-rodinia-2.5.sm_60.ptx:283 skipping new declaration
[...]
mismatch at (8, 10): (o)2.299694 (n)296543584256.000000
mismatch at (8, 11): (o)2.356219 (n)40569667584.000000
mismatch at (8, 12): (o)2.741440 (n)336997646336.000000
mismatch at (8, 13): (o)2.162116 (n)378663600128.000000
mismatch at (8, 14): (o)2.752359 (n)237221183488.000000
mismatch at (8, 15): (o)3.052096 (n)382274109440.000000
mismatch at (8, 16): (o)2.696985 (n)-2513700913152.000000
mismatch at (8, 17): (o)1.835086 (n)1648205234176.000000
mismatch at (8, 18): (o)2.758490 (n)-17078425747456.000000
mismatch at (8, 19): (o)2.445538 (n)45478586613760.000000
mismatch at (8, 20): (o)2.589309 (n)-319940536041472.000000
mismatch at (8, 21): (o)1.058916 (n)496688204611584.000000
mismatch at (8, 22): (o)2.281367 (n)22606359035904.000000
mismatch at (8, 23): (o)1.705769 (n)438196185858048.000000
mismatch at (8, 24): (o)2.615382 (n)0.000000
mismatch at (8, 25): (o)2.375207 (n)-600557613953390215168.000000
mismatch at (8, 26): (o)2.159938 (n)-1364235324935163084800.000000
mismatch at (8, 27): (o)1.746790 (n)775162101137800167424.000000
mismatch at (8, 28): (o)2.146138 (n)-3593545147243741315072.000000
mismatch at (8, 29): (o)2.582238 (n)-2299476045240498913280.000000
mismatch at (8, 30): (o)2.339331 (n)-1604040605356085215232.000000
mismatch at (8, 31): (o)2.432750 (n)-2563751493499250278400.000000
mismatch at (8, 32): (o)2.344543 (n)-3416707072.000000
mismatch at (8, 33): (o)1.990692 (n)-1383672832.000000
mismatch at (8, 34): (o)2.531886 (n)-5737692672.000000
mismatch at (8, 35): (o)2.932216 (n)-3812748032.000000
mismatch at (8, 36): (o)2.055598 (n)-2268450304.000000
mismatch at (8, 37): (o)2.489558 (n)-3986023168.000000
mismatch at (8, 38): (o)3.380357 (n)-6126834688.000000
mismatch at (8, 39): (o)1.567406 (n)-2321263104.000000
mismatch at (8, 40): (o)3.298474 (n)-5223352832.000000
mismatch at (8, 41): (o)3.209685 (n)-5551331840.000000
mismatch at (8, 42): (o)3.084690 (n)-5110308864.000000
mismatch at (8, 43): (o)3.337492 (n)-6102253056.000000
mismatch at (8, 44): (o)3.186901 (n)-2908360704.000000
mismatch at (8, 45): (o)2.281950 (n)-3892081920.000000
mismatch at (8, 46): (o)2.615980 (n)-4010124288.000000
mismatch at (8, 47): (o)2.670974 (n)-5129921536.000000
mismatch at (8, 48): (o)2.591957 (n)-2984868864.000000
mismatch at (8, 49): (o)2.686826 (n)-5374628864.000000
mismatch at (8, 50): (o)3.485860 (n)-4969778688.000000
mismatch at (8, 51): (o)1.932736 (n)-4069685248.000000
mismatch at (8, 52): (o)2.094589 (n)-2500552960.000000
mismatch at (8, 53): (o)2.669987 (n)-4557195776.000000
mismatch at (8, 54): (o)2.859233 (n)-4272436480.000000
mismatch at (8, 55): (o)3.561797 (n)-5664147968.000000
mismatch at (8, 56): (o)2.219872 (n)-4558452224.000000
mismatch at (8, 57): (o)3.523087 (n)-5318102016.000000
mismatch at (8, 58): (o)2.613197 (n)-3023854336.000000
mismatch at (8, 59): (o)1.899094 (n)-3452246784.000000
mismatch at (8, 60): (o)2.830471 (n)-4930649088.000000
mismatch at (8, 61): (o)3.101148 (n)-5129332736.000000
mismatch at (8, 62): (o)3.704971 (n)-5787354624.000000
mismatch at (8, 63): (o)2.153851 (n)-2542896896.000000
mismatch at (9, 0): (o)0.722140 (n)-1824990035968.000000
mismatch at (9, 1): (o)0.926160 (n)-1142674030592.000000
mismatch at (9, 2): (o)0.620302 (n)-743422230528.000000
mismatch at (9, 3): (o)1.791229 (n)87323890941952.000000
mismatch at (9, 4): (o)1.260241 (n)7055337324544.000000
mismatch at (9, 5): (o)0.905995 (n)16862044825321472.000000
mismatch at (9, 6): (o)2.039469 (n)27537206440624128.000000
mismatch at (9, 7): (o)3.661278 (n)1230982959898013204480.000000
mismatch at (9, 8): (o)2.035132 (n)-19984723346456576.000000
mismatch at (9, 9): (o)3.183936 (n)-26247541578268672.000000
mismatch at (9, 10): (o)3.088853 (n)-63472607248252928.000000
mismatch at (9, 11): (o)2.862871 (n)4222124650659840.000000
mismatch at (9, 12): (o)3.352077 (n)-99642141755572224.000000
mismatch at (9, 13): (o)3.345203 (n)-88383142687145984.000000
mismatch at (9, 14): (o)3.102863 (n)-57561632737329152.000000
mismatch at (9, 15): (o)3.540070 (n)-92886742314516480.000000
mismatch at (9, 16): (o)3.117539 (n)1886278660728603803648.000000
mismatch at (9, 17): (o)2.550831 (n)-1256389454245870436352.000000
mismatch at (9, 18): (o)3.712202 (n)12911369771708474982400.000000
mismatch at (9, 19): (o)3.133639 (n)-34356898707697454546944.000000
mismatch at (9, 20): (o)3.107446 (n)241415854341962646683648.000000
mismatch at (9, 21): (o)1.264360 (n)-336542398880757059682304.000000
mismatch at (9, 22): (o)2.593826 (n)-10379319960411215757312.000000
mismatch at (9, 23): (o)2.922790 (n)-1536706015060374197370880.000000
mismatch at (9, 24): (o)4.344273 (n)368261353954571749171396608.000000
mismatch at (9, 25): (o)3.900613 (n)0.000000
mismatch at (9, 26): (o)3.114342 (n)58549130390813258754456410551085957120.000000
mismatch at (9, 27): (o)3.451946 (n)inf
mismatch at (9, 28): (o)2.827525 (n)-inf
mismatch at (9, 29): (o)4.118096 (n)-inf
mismatch at (9, 30): (o)3.454810 (n)-194757700607506020305186995234706292736.000000
mismatch at (9, 31): (o)2.847758 (n)-inf
mismatch at (9, 32): (o)3.899829 (n)1531255162142720.000000
mismatch at (9, 33): (o)2.807403 (n)771432363589632.000000
mismatch at (9, 34): (o)3.137592 (n)1985067580653568.000000
mismatch at (9, 35): (o)2.728527 (n)1425123567468544.000000
mismatch at (9, 36): (o)2.740459 (n)1106745493553152.000000
mismatch at (9, 37): (o)3.121674 (n)1642882435907584.000000
mismatch at (9, 38): (o)3.836743 (n)2146835376373760.000000
mismatch at (9, 39): (o)2.650339 (n)941008275636224.000000
mismatch at (9, 40): (o)3.239358 (n)1919649323155456.000000
mismatch at (9, 41): (o)3.278940 (n)2205741926580224.000000
mismatch at (9, 42): (o)2.625923 (n)1601096027996160.000000
mismatch at (9, 43): (o)4.834542 (n)2442822242271232.000000
mismatch at (9, 44): (o)3.440576 (n)1572973387448320.000000
mismatch at (9, 45): (o)3.394014 (n)1524567629627392.000000
mismatch at (9, 46): (o)3.418617 (n)1464122004733952.000000
mismatch at (9, 47): (o)2.936856 (n)1803974982238208.000000
mismatch at (9, 48): (o)2.469450 (n)1197950801805312.000000
mismatch at (9, 49): (o)2.568560 (n)1706937846595584.000000
mismatch at (9, 50): (o)4.242277 (n)2003807194054656.000000
mismatch at (9, 51): (o)1.832828 (n)1203704581586944.000000
mismatch at (9, 52): (o)1.726284 (n)982244860624896.000000
mismatch at (9, 53): (o)2.943996 (n)1635749032099840.000000
mismatch at (9, 54): (o)2.998991 (n)1537357908017152.000000
mismatch at (9, 55): (o)4.932480 (n)2023177764995072.000000
mismatch at (9, 56): (o)3.448025 (n)1940485551685632.000000
mismatch at (9, 57): (o)4.177958 (n)2252355206643712.000000
mismatch at (9, 58): (o)3.336491 (n)1293577309126656.000000
mismatch at (9, 59): (o)2.220130 (n)1174596246044672.000000
mismatch at (9, 60): (o)3.672051 (n)2064994774548480.000000
mismatch at (9, 61): (o)4.456244 (n)2067280368238592.000000
mismatch at (9, 62): (o)4.822438 (n)2063528714305536.000000
mismatch at (9, 63): (o)2.161112 (n)1313704733835264.000000
mismatch at (10, 0): (o)0.130229 (n)1369470759501981286400.000000
mismatch at (10, 1): (o)0.335467 (n)851425564646482903040.000000
mismatch at (10, 2): (o)0.483336 (n)555205802755815899136.000000
mismatch at (10, 3): (o)1.157052 (n)-65981121247897549012992.000000
mismatch at (10, 4): (o)0.874266 (n)-5357347008731120926720.000000
mismatch at (10, 5): (o)0.834321 (n)-11413877931669105395367936.000000
mismatch at (10, 6): (o)0.924251 (n)-23305980785920103275298816.000000
mismatch at (10, 7): (o)2.282481 (n)-4316862539825408222770180915200.000000
mismatch at (10, 8): (o)1.236632 (n)-309488050915135016247115246590989697024.000000
mismatch at (10, 9): (o)1.835975 (n)0.000000
mismatch at (10, 10): (o)2.233986 (n)0.000000
mismatch at (10, 14): (o)2.946417 (n)0.000000
mismatch at (10, 32): (o)2.292254 (n)859532238220505323956862976.000000
mismatch at (10, 33): (o)2.108690 (n)730996137171636411516846080.000000
mismatch at (10, 34): (o)2.116291 (n)927949219741534090269032448.000000
mismatch at (10, 35): (o)2.374753 (n)1076495241956918701728989184.000000
mismatch at (10, 36): (o)2.165602 (n)754110424004828543559139328.000000
mismatch at (10, 37): (o)2.933502 (n)912793669958479502014152704.000000
mismatch at (10, 38): (o)3.375460 (n)1240011387283928973030981632.000000
mismatch at (10, 39): (o)2.386448 (n)574932513343892946486820864.000000
mismatch at (10, 40): (o)2.744032 (n)1210257969684656183685677056.000000
mismatch at (10, 41): (o)2.203928 (n)1176700833457384484797153280.000000
mismatch at (10, 42): (o)1.983964 (n)1132597103347362676544110592.000000
mismatch at (10, 43): (o)3.829703 (n)1223177257577143110417252352.000000
mismatch at (10, 44): (o)3.250005 (n)1169371130380160436719845376.000000
mismatch at (10, 45): (o)2.657405 (n)836713394440397724093251584.000000
mismatch at (10, 46): (o)2.404756 (n)959987451061776544677494784.000000
mismatch at (10, 47): (o)2.774098 (n)979538638596667234567847936.000000
mismatch at (10, 48): (o)1.896476 (n)951624877890377351386103808.000000
mismatch at (10, 49): (o)2.185453 (n)985823813237461552994451456.000000
mismatch at (10, 50): (o)2.956950 (n)1278858754563635391970148352.000000
mismatch at (10, 51): (o)1.411260 (n)709314424483208563253051392.000000
mismatch at (10, 52): (o)1.627773 (n)769007645583874903253188608.000000
mismatch at (10, 53): (o)2.263329 (n)979514067533561053445095424.000000
mismatch at (10, 54): (o)2.841098 (n)1049426268342228421173051392.000000
mismatch at (10, 55): (o)4.049264 (n)1307059694181664785451450368.000000
mismatch at (10, 56): (o)2.220897 (n)812685993775556969245966336.000000
mismatch at (10, 57): (o)2.876484 (n)1291848951740341658218135552.000000
mismatch at (10, 58): (o)3.081021 (n)959128423083752038277840896.000000
mismatch at (10, 59): (o)2.537026 (n)696756840348518933409562624.000000
mismatch at (10, 60): (o)2.877723 (n)1037272520328800440833540096.000000
mismatch at (10, 61): (o)3.662987 (n)1137031405474777273399771136.000000
mismatch at (10, 62): (o)3.664791 (n)1359697699756923875502325760.000000
mismatch at (10, 63): (o)2.115239 (n)789687700069100322864234496.000000
mismatch at (11, 0): (o)0.140664 (n)inf
mismatch at (32, 0): (o)0.124056 (n)0.090067
mismatch at (32, 1): (o)0.286240 (n)0.169731
mismatch at (32, 2): (o)0.371258 (n)0.226178
mismatch at (32, 3): (o)0.936968 (n)2.567705
mismatch at (32, 4): (o)1.005864 (n)0.846179
mismatch at (32, 5): (o)0.984031 (n)34.826015
mismatch at (32, 6): (o)0.888041 (n)-738.680725
mismatch at (32, 7): (o)2.069264 (n)5812077.000000
mismatch at (32, 8): (o)1.539946 (n)-1294161543168.000000
mismatch at (32, 9): (o)1.634595 (n)-981668469601386627072.000000
mismatch at (32, 10): (o)2.019197 (n)118222230792222478477126281979437776896.000000
mismatch at (33, 0): (o)0.533001 (n)0.386968
mismatch at (33, 1): (o)0.785070 (n)0.592111
mismatch at (33, 2): (o)0.696558 (n)0.587842
mismatch at (33, 3): (o)1.895000 (n)5.510980
mismatch at (33, 4): (o)1.506788 (n)1.912012
mismatch at (33, 5): (o)1.155013 (n)41.632900
mismatch at (33, 6): (o)1.901937 (n)-1677.965820
mismatch at (33, 7): (o)3.377985 (n)9487470.000000
mismatch at (33, 8): (o)2.542088 (n)-2136356028416.000000
mismatch at (33, 9): (o)3.118229 (n)-1872676101004084641792.000000
mismatch at (33, 10): (o)3.121891 (n)182784000380399860322080159385258033152.000000
mismatch at (34, 0): (o)0.326582 (n)0.237104
mismatch at (34, 1): (o)0.597804 (n)0.398805
mismatch at (34, 2): (o)0.722208 (n)0.467249
mismatch at (34, 3): (o)1.842432 (n)5.121978
mismatch at (34, 4): (o)1.192164 (n)1.672938
mismatch at (34, 5): (o)0.988606 (n)35.665085
mismatch at (34, 6): (o)1.948929 (n)-1739.922607
mismatch at (34, 7): (o)3.369064 (n)9462346.000000
mismatch at (34, 8): (o)1.905817 (n)-1601631944704.000000
mismatch at (34, 9): (o)2.460741 (n)-1477816811224888770560.000000
mismatch at (34, 10): (o)2.796342 (n)163723382848862562872801066569460350976.000000
mismatch at (35, 0): (o)0.267008 (n)0.193852
mismatch at (35, 1): (o)0.480327 (n)0.323458
mismatch at (35, 2): (o)0.583607 (n)0.375811
mismatch at (35, 3): (o)1.650216 (n)4.482622
mismatch at (35, 4): (o)1.145923 (n)1.457502
mismatch at (35, 5): (o)0.977138 (n)35.103920
mismatch at (35, 6): (o)1.515321 (n)-1331.029785
mismatch at (35, 7): (o)3.165421 (n)8890719.000000
mismatch at (35, 8): (o)2.089927 (n)-1756359950336.000000
mismatch at (35, 9): (o)2.460697 (n)-1477790211839589613568.000000
mismatch at (35, 10): (o)2.917862 (n)170838269596137135992487946795333189632.000000
mismatch at (36, 0): (o)0.058976 (n)0.042818
mismatch at (36, 1): (o)0.231154 (n)0.110005
mismatch at (36, 2): (o)0.458459 (n)0.199059
mismatch at (36, 3): (o)1.145036 (n)2.975711
mismatch at (36, 4): (o)0.862220 (n)0.908348
mismatch at (36, 5): (o)0.738600 (n)26.428699
mismatch at (36, 6): (o)1.658276 (n)-1492.541504
mismatch at (36, 7): (o)2.953660 (n)8295681.000000
mismatch at (36, 8): (o)1.541132 (n)-1295152185344.000000
mismatch at (36, 9): (o)2.835885 (n)-1703112338071353294848.000000
mismatch at (36, 10): (o)2.634849 (n)154268118998627425328730124991319769088.000000
mismatch at (37, 0): (o)0.332195 (n)0.241179
mismatch at (37, 1): (o)0.451116 (n)0.357263
mismatch at (37, 2): (o)0.420317 (n)0.340081
mismatch at (37, 3): (o)1.547175 (n)4.171064
mismatch at (37, 4): (o)0.995358 (n)1.389240
mismatch at (37, 5): (o)0.852166 (n)30.680410
mismatch at (37, 6): (o)1.605811 (n)-1429.836182
mismatch at (37, 7): (o)2.194031 (n)6161830.000000
mismatch at (37, 8): (o)1.371568 (n)-1152655163392.000000
mismatch at (37, 9): (o)2.162787 (n)-1298878242717832314880.000000
mismatch at (37, 10): (o)2.293257 (n)134268202795935415370447611021215399936.000000
mismatch at (38, 0): (o)0.435270 (n)0.316013
mismatch at (38, 1): (o)0.629958 (n)0.480100
mismatch at (38, 2): (o)0.563530 (n)0.472235
mismatch at (38, 3): (o)1.491670 (n)4.367045
mismatch at (38, 4): (o)0.833844 (n)1.499125
mismatch at (38, 5): (o)0.567524 (n)20.887434
mismatch at (38, 6): (o)1.628112 (n)-1479.469849
mismatch at (38, 7): (o)2.766087 (n)7768776.000000
mismatch at (38, 8): (o)1.644415 (n)-1381952913408.000000
mismatch at (38, 9): (o)2.175393 (n)-1306448934428930473984.000000
mismatch at (38, 10): (o)2.394697 (n)140207419670534319414010388826294321152.000000
mismatch at (39, 0): (o)0.079963 (n)0.058054
mismatch at (39, 1): (o)0.197361 (n)0.113369
mismatch at (39, 2): (o)0.320494 (n)0.162700
mismatch at (39, 3): (o)0.926761 (n)2.405414
mismatch at (39, 4): (o)0.570599 (n)0.744002
mismatch at (39, 5): (o)0.601355 (n)21.448078
mismatch at (39, 6): (o)1.133467 (n)-1010.135742
mismatch at (39, 7): (o)1.889840 (n)5307763.500000
mismatch at (39, 8): (o)1.471175 (n)-1236367310848.000000
mismatch at (39, 9): (o)1.402814 (n)-842470649368665915392.000000
mismatch at (39, 10): (o)1.673444 (n)97978692426576206479546525600511426560.000000
mismatch at (40, 0): (o)0.035155 (n)0.025523
mismatch at (40, 1): (o)0.172433 (n)0.076255
mismatch at (40, 2): (o)0.390429 (n)0.153527
mismatch at (40, 3): (o)1.243377 (n)3.075280
mismatch at (40, 4): (o)0.822043 (n)0.917106
mismatch at (40, 5): (o)0.875018 (n)31.105923
mismatch at (40, 6): (o)1.495026 (n)-1324.141357
mismatch at (40, 7): (o)2.947263 (n)8277888.500000
mismatch at (40, 8): (o)1.488905 (n)-1251260628992.000000
mismatch at (40, 9): (o)1.986976 (n)-1193293601253944721408.000000
mismatch at (40, 10): (o)2.696704 (n)157889664927817052992948450391945641984.000000
mismatch at (41, 0): (o)0.699082 (n)0.507545
mismatch at (41, 1): (o)0.645072 (n)0.658019
mismatch at (41, 2): (o)0.124368 (n)0.437711
mismatch at (41, 3): (o)1.308479 (n)3.868083
mismatch at (41, 4): (o)1.054646 (n)1.496536
mismatch at (41, 5): (o)0.818371 (n)29.511402
mismatch at (41, 6): (o)2.205524 (n)-2001.957153
mismatch at (41, 7): (o)2.746971 (n)7714513.000000
mismatch at (41, 8): (o)2.092060 (n)-1758155374592.000000
mismatch at (41, 9): (o)2.654955 (n)-1594453426911831916544.000000
mismatch at (41, 10): (o)2.686090 (n)157268232179970769462829130559793397760.000000
mismatch at (42, 0): (o)0.311307 (n)0.226014
mismatch at (42, 1): (o)0.288255 (n)0.293329
mismatch at (42, 2): (o)0.046296 (n)0.194610
mismatch at (42, 3): (o)0.566655 (n)1.683860
mismatch at (42, 4): (o)0.714988 (n)0.671041
mismatch at (42, 5): (o)0.710509 (n)25.117548
mismatch at (42, 6): (o)1.556503 (n)-1400.982178
mismatch at (42, 7): (o)2.331403 (n)6547763.000000
mismatch at (42, 8): (o)1.688448 (n)-1418961223680.000000
mismatch at (42, 9): (o)2.162099 (n)-1298464896714532716544.000000
mismatch at (42, 10): (o)1.926592 (n)112800286350950304810220642897531764736.000000
mismatch at (43, 0): (o)0.379750 (n)0.275705
mismatch at (43, 1): (o)0.565529 (n)0.423772
mismatch at (43, 2): (o)0.552805 (n)0.428797
mismatch at (43, 3): (o)1.442836 (n)4.164038
mismatch at (43, 4): (o)1.063666 (n)1.423605
mismatch at (43, 5): (o)0.707547 (n)25.756168
mismatch at (43, 6): (o)1.994491 (n)-1812.553833
mismatch at (43, 7): (o)3.247993 (n)9122166.000000
mismatch at (43, 8): (o)2.277107 (n)-1913666011136.000000
mismatch at (43, 9): (o)2.324215 (n)-1395824980096423297024.000000
mismatch at (43, 10): (o)2.660042 (n)155743147095848191234476476867469639680.000000
mismatch at (44, 0): (o)0.652005 (n)0.473367
mismatch at (44, 1): (o)0.740374 (n)0.656486
mismatch at (44, 2): (o)0.330719 (n)0.521098
mismatch at (44, 3): (o)1.206327 (n)3.841278
mismatch at (44, 4): (o)1.093415 (n)1.484068
mismatch at (44, 5): (o)0.797357 (n)28.796385
mismatch at (44, 6): (o)1.451876 (n)-1290.023071
mismatch at (44, 7): (o)2.540997 (n)7136662.000000
mismatch at (44, 8): (o)1.548772 (n)-1301575761920.000000
mismatch at (44, 9): (o)2.605703 (n)-1564874910459169341440.000000
mismatch at (44, 10): (o)2.497361 (n)146218314580672528460851396217418022912.000000
mismatch at (45, 0): (o)0.304594 (n)0.221140
mismatch at (45, 1): (o)0.378077 (n)0.316616
mismatch at (45, 2): (o)0.248725 (n)0.274306
mismatch at (45, 3): (o)0.817817 (n)2.425151
mismatch at (45, 4): (o)0.715752 (n)0.879159
mismatch at (45, 5): (o)0.579071 (n)20.778820
mismatch at (45, 6): (o)1.257869 (n)-1130.140259
mismatch at (45, 7): (o)1.961478 (n)5508877.500000
mismatch at (45, 8): (o)1.357018 (n)-1140428898304.000000
mismatch at (45, 9): (o)2.158195 (n)-1296120491633509662720.000000
mismatch at (45, 10): (o)1.735688 (n)101623025642955536795486155737957138432.000000
mismatch at (46, 0): (o)0.453082 (n)0.328945
mismatch at (46, 1): (o)0.615272 (n)0.487270
mismatch at (46, 2): (o)0.457171 (n)0.451611
mismatch at (46, 3): (o)1.168267 (n)3.608044
mismatch at (46, 4): (o)1.088067 (n)1.315391
mismatch at (46, 5): (o)0.850757 (n)30.553509
mismatch at (46, 6): (o)1.904525 (n)-1713.861572
mismatch at (46, 7): (o)3.120657 (n)8764562.000000
mismatch at (46, 8): (o)2.301950 (n)-1934544994304.000000
mismatch at (46, 9): (o)2.938961 (n)-1765015440849467604992.000000
mismatch at (46, 10): (o)2.466060 (n)144385667037320176302190006406593118208.000000
mismatch at (47, 0): (o)0.454298 (n)0.329828
mismatch at (47, 1): (o)0.640982 (n)0.495996
mismatch at (47, 2): (o)0.539233 (n)0.476984
mismatch at (47, 3): (o)1.530283 (n)4.455897
mismatch at (47, 4): (o)1.197317 (n)1.555494
mismatch at (47, 5): (o)0.975317 (n)35.071659
mismatch at (47, 6): (o)1.903787 (n)-1699.427124
mismatch at (47, 7): (o)2.853303 (n)8013537.500000
mismatch at (47, 8): (o)1.847198 (n)-1552371810304.000000
mismatch at (47, 9): (o)2.660038 (n)-1597506023034258980864.000000
mismatch at (47, 10): (o)2.403548 (n)140725645377112421419177453070277672960.000000
mismatch at (48, 0): (o)0.006084 (n)0.004417
mismatch at (48, 1): (o)0.137559 (n)0.046410
mismatch at (48, 2): (o)0.331317 (n)0.124410
mismatch at (48, 3): (o)0.901558 (n)2.260611
mismatch at (48, 4): (o)0.804749 (n)0.678713
mismatch at (48, 5): (o)0.901093 (n)31.802181
mismatch at (48, 6): (o)1.535823 (n)-1361.353882
mismatch at (48, 7): (o)2.199725 (n)6177897.500000
mismatch at (48, 8): (o)1.328118 (n)-1116139683840.000000
mismatch at (48, 9): (o)1.746330 (n)-1048771822574230306816.000000
mismatch at (48, 10): (o)1.841781 (n)107834675843350690076183393022309826560.000000

FAILED
GPGPU-Sim: *** exit detected ***
