Skipping setup_environment - already set
doing: export -n PTX_SIM_USE_PTX_FILE
doing: export LD_LIBRARY_PATH=/home/runner/accel-sim/util/job_launching/../../sim_run_11.0/gpgpu-sim-builds/gpgpu-sim_git-commit-61396d8_modified_0.0:/home/runner/accel-sim/gpu-simulator/gpgpu-sim/lib/gcc-7.5.0/cuda-11000/release:
doing: cd /home/runner/accel-sim/util/job_launching/../../sim_run_11.0/srad_v2-rodinia-2.0-ft/__data_matrix128x128_txt_0_127_0_127__5_2___data_result_matrix128x128_1_150_1_100__5_2_txt/ORIN-PTX
doing: export OPENCL_CURRENT_TEST_PATH=/home/runner/accel-sim/util/job_launching/../../sim_run_11.0/srad_v2-rodinia-2.0-ft/__data_matrix128x128_txt_0_127_0_127__5_2___data_result_matrix128x128_1_150_1_100__5_2_txt/ORIN-PTX
doing: export OPENCL_REMOTE_GPU_HOST=REPLACE_REMOTE_HOST
doing 
doing: export PATH=/home/runner/accel-sim/gpu-simulator/gpgpu-sim/bin:/usr/local/cuda-11.0//bin:/usr/local/cuda-11.0//bin:/usr/local/sbin:/usr/local/bin:/usr/sbin:/usr/bin:/sbin:/bin
doing export CUDA_LAUNCH_BLOCKING=1
doing:  /home/runner/accel-sim/gpu-app-collection/src/..//bin/11.0/release/srad_v2-rodinia-2.0-ft ./data/matrix128x128.txt 0 127 0 127 .5 2 ./data/result_matrix128x128_1_150_1_100_.5_2.txt


        *** GPGPU-Sim Simulator Version 4.2.0  [build gpgpu-sim_git-commit-61396d8_modified_0.0] ***


GPGPU-Sim PTX: simulation mode 0 (can change with PTX_SIM_MODE_FUNC environment variable:
               1=functional simulation only, 0=detailed performance simulator)
GPGPU-Sim: Configuration options:

-save_embedded_ptx                      0 # saves ptx files embedded in binary as <n>.ptx
-keep                                   0 # keep intermediate files created by GPGPU-Sim when interfacing with external programs
-gpgpu_ptx_save_converted_ptxplus                    0 # Saved converted ptxplus to a file
-gpgpu_occupancy_sm_number                   87 # The SM number to pass to ptxas when getting register usage for computing GPU occupancy. This parameter is required in the config.
-ptx_opcode_latency_int           4,4,4,4,21 # Opcode latencies for integers <ADD,MAX,MUL,MAD,DIV,SHFL>Default 1,1,19,25,145,32
-ptx_opcode_latency_fp           4,4,4,4,39 # Opcode latencies for single precision floating points <ADD,MAX,MUL,MAD,DIV>Default 1,1,1,1,30
-ptx_opcode_latency_dp      64,64,64,64,330 # Opcode latencies for double precision floating points <ADD,MAX,MUL,MAD,DIV>Default 8,8,8,8,335
-ptx_opcode_latency_sfu                   21 # Opcode latencies for SFU instructionsDefault 8
-ptx_opcode_latency_tesnor                   64 # Opcode latencies for Tensor instructionsDefault 64
-ptx_opcode_initiation_int            2,2,2,2,2 # Opcode initiation intervals for integers <ADD,MAX,MUL,MAD,DIV,SHFL>Default 1,1,4,4,32,4
-ptx_opcode_initiation_fp            1,1,1,1,2 # Opcode initiation intervals for single precision floating points <ADD,MAX,MUL,MAD,DIV>Default 1,1,1,1,5
-ptx_opcode_initiation_dp      64,64,64,64,130 # Opcode initiation intervals for double precision floating points <ADD,MAX,MUL,MAD,DIV>Default 8,8,8,8,130
-ptx_opcode_initiation_sfu                    8 # Opcode initiation intervals for sfu instructionsDefault 8
-ptx_opcode_initiation_tensor                   64 # Opcode initiation intervals for tensor instructionsDefault 64
-cdp_latency         7200,8000,100,12000,1600 # CDP API latency <cudaStreamCreateWithFlags, cudaGetParameterBufferV2_init_perWarp, cudaGetParameterBufferV2_perKernel, cudaLaunchDeviceV2_init_perWarp, cudaLaunchDevicV2_perKernel>Default 7200,8000,100,12000,1600
-network_mode                           2 # Interconnection network mode
-inter_config_file                   mesh # Interconnection network config file
-icnt_in_buffer_limit                  512 # in_buffer_limit
-icnt_out_buffer_limit                  512 # out_buffer_limit
-icnt_subnets                           2 # subnets
-icnt_arbiter_algo                      1 # arbiter_algo
-icnt_verbose                           0 # inct_verbose
-icnt_grant_cycles                      1 # grant_cycles
-gpgpu_ptx_use_cuobjdump                    1 # Use cuobjdump to extract ptx and sass from binaries
-gpgpu_experimental_lib_support                    0 # Try to extract code from cuda libraries [Broken because of unknown cudaGetExportTable]
-checkpoint_option                      0 #  checkpointing flag (0 = no checkpoint)
-checkpoint_kernel                      1 #  checkpointing during execution of which kernel (1- 1st kernel)
-checkpoint_CTA                         0 #  checkpointing after # of CTA (< less than total CTA)
-resume_option                          0 #  resume flag (0 = no resume)
-resume_kernel                          0 #  Resume from which kernel (1= 1st kernel)
-resume_CTA                             0 #  resume from which CTA 
-checkpoint_CTA_t                       0 #  resume from which CTA 
-checkpoint_insn_Y                      0 #  resume from which CTA 
-gpgpu_ptx_convert_to_ptxplus                    0 # Convert SASS (native ISA) to ptxplus and run ptxplus
-gpgpu_ptx_force_max_capability                   86 # Force maximum compute capability
-gpgpu_ptx_inst_debug_to_file                    0 # Dump executed instructions' debug information to file
-gpgpu_ptx_inst_debug_file       inst_debug.txt # Executed instructions' debug output file
-gpgpu_ptx_inst_debug_thread_uid                    1 # Thread UID for executed instructions' debug output
-gpgpu_simd_model                       1 # 1 = post-dominator
-gpgpu_shader_core_pipeline              1536:32 # shader core pipeline config, i.e., {<nthread>:<warpsize>}
-gpgpu_tex_cache:l1  N:4:128:256,L:R:m:N:L,T:512:8,128:2 # per-shader L1 texture cache  (READ-ONLY) config  {<nsets>:<bsize>:<assoc>,<rep>:<wr>:<alloc>:<wr_alloc>,<mshr>:<N>:<merge>,<mq>:<rf>}
-gpgpu_const_cache:l1 N:128:64:8,L:R:f:N:L,S:2:64,4 # per-shader L1 constant memory cache  (READ-ONLY) config  {<nsets>:<bsize>:<assoc>,<rep>:<wr>:<alloc>:<wr_alloc>,<mshr>:<N>:<merge>,<mq>} 
-gpgpu_cache:il1     N:64:128:16,L:R:f:N:L,S:2:48,4 # shader L1 instruction cache config  {<nsets>:<bsize>:<assoc>,<rep>:<wr>:<alloc>:<wr_alloc>,<mshr>:<N>:<merge>,<mq>} 
-gpgpu_cache:dl1     S:4:128:256,L:T:m:L:L,A:384:48,16:0,32 # per-shader L1 data cache config  {<nsets>:<bsize>:<assoc>,<rep>:<wr>:<alloc>:<wr_alloc>,<mshr>:<N>:<merge>,<mq> | none}
-gpgpu_l1_cache_write_ratio                   25 # L1D write ratio
-gpgpu_l1_banks                         4 # The number of L1 cache banks
-gpgpu_l1_banks_byte_interleaving                   32 # l1 banks byte interleaving granularity
-gpgpu_l1_banks_hashing_function                    0 # l1 banks hashing function
-gpgpu_l1_latency                      39 # L1 Hit Latency
-gpgpu_smem_latency                    29 # smem Latency
-gpgpu_cache:dl1PrefL1                 none # per-shader L1 data cache config  {<nsets>:<bsize>:<assoc>,<rep>:<wr>:<alloc>:<wr_alloc>,<mshr>:<N>:<merge>,<mq> | none}
-gpgpu_cache:dl1PrefShared                 none # per-shader L1 data cache config  {<nsets>:<bsize>:<assoc>,<rep>:<wr>:<alloc>:<wr_alloc>,<mshr>:<N>:<merge>,<mq> | none}
-gpgpu_gmem_skip_L1D                    1 # global memory access skip L1D cache (implements -Xptxas -dlcm=cg, default=no skip)
-gpgpu_perfect_mem                      1 # enable perfect memory mode (no cache miss)
-n_regfile_gating_group                    4 # group of lanes that should be read/written together)
-gpgpu_clock_gated_reg_file                    0 # enable clock gated reg file for power calculations
-gpgpu_clock_gated_lanes                    0 # enable clock gated lanes for power calculations
-gpgpu_shader_registers                65536 # Number of registers per shader core. Limits number of concurrent CTAs. (default 8192)
-gpgpu_registers_per_block                65536 # Maximum number of registers per CTA. (default 8192)
-gpgpu_ignore_resources_limitation                    0 # gpgpu_ignore_resources_limitation (default 0)
-gpgpu_shader_cta                      32 # Maximum number of concurrent CTAs in shader (default 32)
-gpgpu_num_cta_barriers                   16 # Maximum number of named barriers per CTA (default 16)
-gpgpu_n_clusters                       1 # number of processing clusters
-gpgpu_n_cores_per_cluster                    1 # number of simd cores per cluster
-gpgpu_n_cluster_ejection_buffer_size                   32 # number of packets in ejection buffer
-gpgpu_n_ldst_response_buffer_size                    2 # number of response packets in ld/st unit ejection buffer
-gpgpu_shmem_per_block                49152 # Size of shared memory per thread block or CTA (default 48kB)
-gpgpu_shmem_size                  102400 # Size of shared memory per shader core (default 16kB)
-gpgpu_shmem_option      0,8,16,32,64,100 # Option list of shared memory sizes
-gpgpu_unified_l1d_size                  128 # Size of unified data cache(L1D + shared memory) in KB
-gpgpu_adaptive_cache_config                    1 # adaptive_cache_config
-gpgpu_shmem_sizeDefault               102400 # Size of shared memory per shader core (default 16kB)
-gpgpu_shmem_size_PrefL1                16384 # Size of shared memory per shader core (default 16kB)
-gpgpu_shmem_size_PrefShared                16384 # Size of shared memory per shader core (default 16kB)
-gpgpu_shmem_num_banks                   32 # Number of banks in the shared memory in each shader core (default 16)
-gpgpu_shmem_limited_broadcast                    0 # Limit shared memory to do one broadcast per cycle (default on)
-gpgpu_shmem_warp_parts                    1 # Number of portions a warp is divided into for shared memory bank conflict check 
-gpgpu_mem_unit_ports                    1 # The number of memory transactions allowed per core cycle
-gpgpu_shmem_warp_parts                    1 # Number of portions a warp is divided into for shared memory bank conflict check 
-gpgpu_warpdistro_shader                   -1 # Specify which shader core to collect the warp size distribution from
-gpgpu_warp_issue_shader                    0 # Specify which shader core to collect the warp issue distribution from
-gpgpu_local_mem_map                    1 # Mapping from local memory space address to simulated GPU physical address space (default = enabled)
-gpgpu_num_reg_banks                   32 # Number of register banks (default = 8)
-gpgpu_reg_bank_use_warp_id                    0 # Use warp ID in mapping registers to banks (default = off)
-gpgpu_sub_core_model                    0 # Sub Core Volta/Pascal model (default = off)
-gpgpu_enable_specialized_operand_collector                    0 # enable_specialized_operand_collector
-gpgpu_operand_collector_num_units_sp                    4 # number of collector units (default = 4)
-gpgpu_operand_collector_num_units_dp                    0 # number of collector units (default = 0)
-gpgpu_operand_collector_num_units_sfu                    4 # number of collector units (default = 4)
-gpgpu_operand_collector_num_units_int                    0 # number of collector units (default = 0)
-gpgpu_operand_collector_num_units_tensor_core                    4 # number of collector units (default = 4)
-gpgpu_operand_collector_num_units_mem                    2 # number of collector units (default = 2)
-gpgpu_operand_collector_num_units_gen                    8 # number of collector units (default = 0)
-gpgpu_operand_collector_num_in_ports_sp                    1 # number of collector unit in ports (default = 1)
-gpgpu_operand_collector_num_in_ports_dp                    0 # number of collector unit in ports (default = 0)
-gpgpu_operand_collector_num_in_ports_sfu                    1 # number of collector unit in ports (default = 1)
-gpgpu_operand_collector_num_in_ports_int                    0 # number of collector unit in ports (default = 0)
-gpgpu_operand_collector_num_in_ports_tensor_core                    1 # number of collector unit in ports (default = 1)
-gpgpu_operand_collector_num_in_ports_mem                    1 # number of collector unit in ports (default = 1)
-gpgpu_operand_collector_num_in_ports_gen                    8 # number of collector unit in ports (default = 0)
-gpgpu_operand_collector_num_out_ports_sp                    1 # number of collector unit in ports (default = 1)
-gpgpu_operand_collector_num_out_ports_dp                    0 # number of collector unit in ports (default = 0)
-gpgpu_operand_collector_num_out_ports_sfu                    1 # number of collector unit in ports (default = 1)
-gpgpu_operand_collector_num_out_ports_int                    0 # number of collector unit in ports (default = 0)
-gpgpu_operand_collector_num_out_ports_tensor_core                    1 # number of collector unit in ports (default = 1)
-gpgpu_operand_collector_num_out_ports_mem                    1 # number of collector unit in ports (default = 1)
-gpgpu_operand_collector_num_out_ports_gen                    8 # number of collector unit in ports (default = 0)
-gpgpu_coalesce_arch                   86 # Coalescing arch (GT200 = 13, Fermi = 20)
-gpgpu_num_sched_per_core                    1 # Number of warp schedulers per core
-gpgpu_max_insn_issue_per_warp                    1 # Max number of instructions that can be issued per warp in one cycle by scheduler (either 1 or 2)
-gpgpu_dual_issue_diff_exec_units                    1 # should dual issue use two different execution unit resources (Default = 1)
-gpgpu_simt_core_sim_order                    1 # Select the simulation order of cores in a cluster (0=Fix, 1=Round-Robin)
-gpgpu_pipeline_widths 1,1,1,1,1,1,1,1,1,1,2,1,1 # Pipeline widths ID_OC_SP,ID_OC_DP,ID_OC_INT,ID_OC_SFU,ID_OC_MEM,OC_EX_SP,OC_EX_DP,OC_EX_INT,OC_EX_SFU,OC_EX_MEM,EX_WB,ID_OC_TENSOR_CORE,OC_EX_TENSOR_CORE
-gpgpu_tensor_core_avail                    1 # Tensor Core Available (default=0)
-gpgpu_num_sp_units                     1 # Number of SP units (default=1)
-gpgpu_num_dp_units                     1 # Number of DP units (default=0)
-gpgpu_num_int_units                    1 # Number of INT units (default=0)
-gpgpu_num_sfu_units                    1 # Number of SF units (default=1)
-gpgpu_num_tensor_core_units                    1 # Number of tensor_core units (default=1)
-gpgpu_num_mem_units                    1 # Number if ldst units (default=1) WARNING: not hooked up to anything
-gpgpu_scheduler                      lrr # Scheduler configuration: < lrr | gto | two_level_active > If two_level_active:<num_active_warps>:<inner_prioritization>:<outer_prioritization>For complete list of prioritization values see shader.h enum scheduler_prioritization_typeDefault: gto
-gpgpu_concurrent_kernel_sm                    0 # Support concurrent kernels on a SM (default = disabled)
-gpgpu_perfect_inst_const_cache                    1 # perfect inst and const cache mode, so all inst and const hits in the cache(default = disabled)
-gpgpu_inst_fetch_throughput                   32 # the number of fetched intruction per warp each cycle
-gpgpu_reg_file_port_throughput                   32 # the number ports of the register file
-specialized_unit_1         0,4,4,4,4,BRA # specialized unit config {<enabled>,<num_units>:<latency>:<initiation>,<ID_OC_SPEC>:<OC_EX_SPEC>,<NAME>}
-specialized_unit_2         0,4,4,4,4,BRA # specialized unit config {<enabled>,<num_units>:<latency>:<initiation>,<ID_OC_SPEC>:<OC_EX_SPEC>,<NAME>}
-specialized_unit_3         0,4,4,4,4,BRA # specialized unit config {<enabled>,<num_units>:<latency>:<initiation>,<ID_OC_SPEC>:<OC_EX_SPEC>,<NAME>}
-specialized_unit_4         0,4,4,4,4,BRA # specialized unit config {<enabled>,<num_units>:<latency>:<initiation>,<ID_OC_SPEC>:<OC_EX_SPEC>,<NAME>}
-specialized_unit_5         0,4,4,4,4,BRA # specialized unit config {<enabled>,<num_units>:<latency>:<initiation>,<ID_OC_SPEC>:<OC_EX_SPEC>,<NAME>}
-specialized_unit_6         0,4,4,4,4,BRA # specialized unit config {<enabled>,<num_units>:<latency>:<initiation>,<ID_OC_SPEC>:<OC_EX_SPEC>,<NAME>}
-specialized_unit_7         0,4,4,4,4,BRA # specialized unit config {<enabled>,<num_units>:<latency>:<initiation>,<ID_OC_SPEC>:<OC_EX_SPEC>,<NAME>}
-specialized_unit_8         0,4,4,4,4,BRA # specialized unit config {<enabled>,<num_units>:<latency>:<initiation>,<ID_OC_SPEC>:<OC_EX_SPEC>,<NAME>}
-gpgpu_perf_sim_memcpy                    1 # Fill the L2 cache on memcpy
-gpgpu_simple_dram_model                    0 # simple_dram_model with fixed latency and BW
-gpgpu_dram_scheduler                    1 # 0 = fifo, 1 = FR-FCFS (defaul)
-gpgpu_dram_partition_queues          64:64:64:64 # i2$:$2d:d2$:$2i
-l2_ideal                               0 # Use a ideal L2 cache that always hit
-gpgpu_cache:dl2     S:64:128:16,L:B:m:L:P,A:192:4,32:0,32 # unified banked L2 data cache config  {<nsets>:<bsize>:<assoc>,<rep>:<wr>:<alloc>:<wr_alloc>,<mshr>:<N>:<merge>,<mq>}
-gpgpu_cache:dl2_texture_only                    0 # L2 cache used for texture only
-gpgpu_n_mem                           16 # number of memory modules (e.g. memory controllers) in gpu
-gpgpu_n_sub_partition_per_mchannel                    2 # number of memory subpartition in each memory module
-gpgpu_n_mem_per_ctrlr                    1 # number of memory chips per memory controller
-gpgpu_memlatency_stat                   14 # track and display latency statistics 0x2 enables MC, 0x4 enables queue logs
-gpgpu_frfcfs_dram_sched_queue_size                   64 # 0 = unlimited (default); # entries per chip
-gpgpu_dram_return_queue_size                  192 # 0 = unlimited (default); # entries per chip
-gpgpu_dram_buswidth                    2 # default = 4 bytes (8 bytes per cycle at DDR)
-gpgpu_dram_burst_length                   16 # Burst length of each DRAM request (default = 4 data bus cycle)
-dram_data_command_freq_ratio                    4 # Frequency ratio between DRAM data bus and command bus (default = 2 times, i.e. DDR)
-gpgpu_dram_timing_opt nbk=16:CCD=4:RRD=12:RCD=24:RAS=55:RP=24:RC=78:CL=24:WL=8:CDLR=10:WR=24:nbkgrp=4:CCDL=6:RTPL=4 # DRAM timing parameters = {nbk:tCCD:tRRD:tRCD:tRAS:tRP:tRC:CL:WL:tCDLR:tWR:nbkgrp:tCCDL:tRTPL}
-gpgpu_l2_rop_latency                  187 # ROP queue latency (default 85)
-dram_latency                         254 # DRAM latency (default 30)
-dram_dual_bus_interface                    0 # dual_bus_interface (default = 0) 
-dram_bnk_indexing_policy                    0 # dram_bnk_indexing_policy (0 = normal indexing, 1 = Xoring with the higher bits) (Default = 0)
-dram_bnkgrp_indexing_policy                    1 # dram_bnkgrp_indexing_policy (0 = take higher bits, 1 = take lower bits) (Default = 0)
-dram_seperate_write_queue_enable                    0 # Seperate_Write_Queue_Enable
-dram_write_queue_size             32:28:16 # Write_Queue_Size
-dram_elimnate_rw_turnaround                    0 # elimnate_rw_turnaround i.e set tWTR and tRTW = 0
-icnt_flit_size                        40 # icnt_flit_size
-gpgpu_mem_addr_mapping dramid@8;00000000.00000000.00000000.00000000.0000RRRR.RRRRRRRR.RBBBCCCC.BCCSSSSS # mapping memory address to dram model {dramid@<start bit>;<memory address map>}
-gpgpu_mem_addr_test                    0 # run sweep test to check address mapping for aliased address
-gpgpu_mem_address_mask                    1 # 0 = old addressing mask, 1 = new addressing mask, 2 = new add. mask + flipped bank sel and chip sel bits
-gpgpu_memory_partition_indexing                    2 # 0 = no indexing, 1 = bitwise xoring, 2 = IPoly, 3 = custom indexing
-accelwattch_xml_file accelwattch_sass_sim.xml # AccelWattch XML file
-power_simulation_enabled                    0 # Turn on power simulator (1=On, 0=Off)
-power_per_cycle_dump                    0 # Dump detailed power output each cycle
-hw_perf_file_name            hw_perf.csv # Hardware Performance Statistics file
-hw_perf_bench_name                       # Kernel Name in Hardware Performance Statistics file
-power_simulation_mode                    0 # Switch performance counter input for power simulation (0=Sim, 1=HW, 2=HW-Sim Hybrid)
-dvfs_enabled                           0 # Turn on DVFS for power model
-aggregate_power_stats                    0 # Accumulate power across all kernels
-accelwattch_hybrid_perfsim_L1_RH                    0 # Get L1 Read Hits for Accelwattch-Hybrid from Accel-Sim
-accelwattch_hybrid_perfsim_L1_RM                    0 # Get L1 Read Misses for Accelwattch-Hybrid from Accel-Sim
-accelwattch_hybrid_perfsim_L1_WH                    0 # Get L1 Write Hits for Accelwattch-Hybrid from Accel-Sim
-accelwattch_hybrid_perfsim_L1_WM                    0 # Get L1 Write Misses for Accelwattch-Hybrid from Accel-Sim
-accelwattch_hybrid_perfsim_L2_RH                    0 # Get L2 Read Hits for Accelwattch-Hybrid from Accel-Sim
-accelwattch_hybrid_perfsim_L2_RM                    0 # Get L2 Read Misses for Accelwattch-Hybrid from Accel-Sim
-accelwattch_hybrid_perfsim_L2_WH                    0 # Get L2 Write Hits for Accelwattch-Hybrid from Accel-Sim
-accelwattch_hybrid_perfsim_L2_WM                    0 # Get L2 Write Misses for Accelwattch-Hybrid from Accel-Sim
-accelwattch_hybrid_perfsim_CC_ACC                    0 # Get Constant Cache Acesses for Accelwattch-Hybrid from Accel-Sim
-accelwattch_hybrid_perfsim_SHARED_ACC                    0 # Get Shared Memory Acesses for Accelwattch-Hybrid from Accel-Sim
-accelwattch_hybrid_perfsim_DRAM_RD                    0 # Get DRAM Reads for Accelwattch-Hybrid from Accel-Sim
-accelwattch_hybrid_perfsim_DRAM_WR                    0 # Get DRAM Writes for Accelwattch-Hybrid from Accel-Sim
-accelwattch_hybrid_perfsim_NOC                    0 # Get Interconnect Acesses for Accelwattch-Hybrid from Accel-Sim
-accelwattch_hybrid_perfsim_PIPE_DUTY                    0 # Get Pipeline Duty Cycle Acesses for Accelwattch-Hybrid from Accel-Sim
-accelwattch_hybrid_perfsim_NUM_SM_IDLE                    0 # Get Number of Idle SMs for Accelwattch-Hybrid from Accel-Sim
-accelwattch_hybrid_perfsim_CYCLES                    0 # Get Executed Cycles for Accelwattch-Hybrid from Accel-Sim
-accelwattch_hybrid_perfsim_VOLTAGE                    0 # Get Chip Voltage for Accelwattch-Hybrid from Accel-Sim
-power_trace_enabled                    0 # produce a file for the power trace (1=On, 0=Off)
-power_trace_zlevel                     6 # Compression level of the power trace output log (0=no comp, 9=highest)
-steady_power_levels_enabled                    0 # produce a file for the steady power levels (1=On, 0=Off)
-steady_state_definition                  8:4 # allowed deviation:number of samples
-gpgpu_max_cycle                        0 # terminates gpu simulation early (0 = no limit)
-gpgpu_max_insn                         0 # terminates gpu simulation early (0 = no limit)
-gpgpu_max_cta                          0 # terminates gpu simulation early (0 = no limit)
-gpgpu_max_completed_cta                    0 # terminates gpu simulation early (0 = no limit)
-gpgpu_runtime_stat                   500 # display runtime statistics such as dram utilization {<freq>:<flag>}
-liveness_message_freq                    1 # Minimum number of seconds between simulation liveness messages (0 = always print)
-gpgpu_compute_capability_major                    8 # Major compute capability version number
-gpgpu_compute_capability_minor                    6 # Minor compute capability version number
-gpgpu_flush_l1_cache                    1 # Flush L1 cache at the end of each kernel call
-gpgpu_flush_l2_cache                    0 # Flush L2 cache at the end of each kernel call
-gpgpu_deadlock_detect                    1 # Stop the simulation at deadlock (1=on (default), 0=off)
-gpgpu_ptx_instruction_classification                    0 # if enabled will classify ptx instruction types per kernel (Max 255 kernels now)
-gpgpu_ptx_sim_mode                     0 # Select between Performance (default) or Functional simulation (1)
-gpgpu_clock_domains     930:930:930:1600 # Clock Domain Frequencies in MhZ {<Core Clock>:<ICNT Clock>:<L2 Clock>:<DRAM Clock>}
-gpgpu_max_concurrent_kernel                  128 # maximum kernels that can run concurrently on GPU, set this value according to max resident grids for your compute capability
-gpgpu_cflog_interval                    0 # Interval between each snapshot in control flow logger
-visualizer_enabled                     0 # Turn on visualizer output (1=On, 0=Off)
-visualizer_outputfile                 NULL # Specifies the output log file for visualizer
-visualizer_zlevel                      6 # Compression level of the visualizer output log (0=no comp, 9=highest)
-gpgpu_stack_size_limit                 1024 # GPU thread stack size
-gpgpu_heap_size_limit              8388608 # GPU malloc heap size 
-gpgpu_runtime_sync_depth_limit                    2 # GPU device runtime synchronize depth
-gpgpu_runtime_pending_launch_count_limit                 2048 # GPU device runtime pending launch count
-trace_enabled                          0 # Turn on traces
-trace_components                    none # comma seperated list of traces to enable. Complete list found in trace_streams.tup. Default none
-trace_sampling_core                    0 # The core which is printed using CORE_DPRINTF. Default 0
-trace_sampling_memory_partition                   -1 # The memory partition which is printed using MEMPART_DPRINTF. Default -1 (i.e. all)
-enable_ptx_file_line_stats                    1 # Turn on PTX source line statistic profiling. (1 = On)
-ptx_line_stats_filename gpgpu_inst_stats.txt # Output file for PTX source line statistics.
-gpgpu_kernel_launch_latency                    0 # Kernel launch latency in cycles. Default: 0
-gpgpu_cdp_enabled                      0 # Turn on CDP
-gpgpu_TB_launch_latency                    0 # thread block c8ff29872a20f53188f3372a1f7b7979  /home/runner/accel-sim/gpu-app-collection/bin/11.0/release/srad_v2-rodinia-2.0-ft
Extracting PTX file and ptxas options    1: srad_v2-rodinia-2.1.sm_60.ptx -arch=sm_60
Extracting PTX file and ptxas options    2: srad_v2-rodinia-2.2.sm_62.ptx -arch=sm_62
Extracting PTX file and ptxas options    3: srad_v2-rodinia-2.3.sm_70.ptx -arch=sm_70
Extracting PTX file and ptxas options    4: srad_v2-rodinia-2.4.sm_75.ptx -arch=sm_75
launch latency in cycles. Default: 0
DRAM Timing Options:
nbk                                    16 # number of banks
CCD                                     4 # column to column delay
RRD                                    12 # minimal delay between activation of rows in different banks
RCD                                    24 # row to column delay
RAS                                    55 # time needed to activate row
RP                                     24 # time needed to precharge (deactivate) row
RC                                     78 # row cycle time
CDLR                                   10 # switching from write to read (changes tWTR)
WR                                     24 # last data-in to row precharge
CL                                     24 # CAS latency
WL                                      8 # Write latency
nbkgrp                                  4 # number of bank groups
CCDL                                    6 # column to column delay between accesses to different bank groups
RTPL                                    4 # read to precharge delay between accesses to different bank groups
Total number of memory sub partition = 32
addr_dec_mask[CHIP]  = 0000000000000f00 	high:12 low:8
addr_dec_mask[BK]    = 0000000000070080 	high:19 low:7
addr_dec_mask[ROW]   = 00000000fff80000 	high:32 low:19
addr_dec_mask[COL]   = 000000000000f07f 	high:16 low:0
addr_dec_mask[BURST] = 000000000000001f 	high:5 low:0
sub_partition_id_mask = 0000000000000080
GPGPU-Sim uArch: clock freqs: 930000000.000000:930000000.000000:930000000.000000:1600000000.000000
GPGPU-Sim uArch: clock periods: 0.00000000107526881720:0.00000000107526881720:0.00000000107526881720:0.00000000062500000000
*** Initializing Memory Statistics ***
GPGPU-Sim uArch: performance model initialization complete.
self exe links to: /home/runner/accel-sim/gpu-app-collection/bin/11.0/release/srad_v2-rodinia-2.0-ft
self exe links to: /home/runner/accel-sim/gpu-app-collection/bin/11.0/release/srad_v2-rodinia-2.0-ft
11.0
GPGPU-Sim PTX: __cudaRegisterFatBinary, fat_cubin_handle = 1, filename=default
self exe links to: /home/runner/accel-sim/gpu-app-collection/bin/11.0/release/srad_v2-rodinia-2.0-ft
Running md5sum using "md5sum /home/runner/accel-sim/gpu-app-collection/bin/11.0/release/srad_v2-rodinia-2.0-ft "
self exe links to: /home/runner/accel-sim/gpu-app-collection/bin/11.0/release/srad_v2-rodinia-2.0-ft
Extracting specific PTX file named srad_v2-rodinia-2.1.sm_60.ptx 
Extracting specific PTX file named srad_v2-rodinia-2.2.sm_62.ptx 
Extracting specific PTX file named srad_v2-rodinia-2.3.sm_70.ptx 
Extracting specific PTX file named srad_v2-rodinia-2.4.sm_75.ptx 
GPGPU-Sim PTX: __cudaRegisterFunction _Z11srad_cuda_2PfS_S_S_S_S_iiff : hostFun 0x0x594557601320, fat_cubin_handle = 1
GPGPU-Sim PTX: Parsing srad_v2-rodinia-2.1.sm_60.ptx
GPGPU-Sim PTX: allocating shared region for "_ZZ11srad_cuda_1PfS_S_S_S_S_iifE4temp" from 0x0 to 0x400 (shared memory space)
GPGPU-Sim PTX: allocating shared region for "_ZZ11srad_cuda_1PfS_S_S_S_S_iifE11temp_result" from 0x400 to 0x800 (shared memory space)
GPGPU-Sim PTX: allocating shared region for "_ZZ11srad_cuda_1PfS_S_S_S_S_iifE5north" from 0x800 to 0xc00 (shared memory space)
GPGPU-Sim PTX: allocating shared region for "_ZZ11srad_cuda_1PfS_S_S_S_S_iifE5south" from 0xc00 to 0x1000 (shared memory space)
GPGPU-Sim PTX: allocating shared region for "_ZZ11srad_cuda_1PfS_S_S_S_S_iifE4east" from 0x1000 to 0x1400 (shared memory space)
GPGPU-Sim PTX: allocating shared region for "_ZZ11srad_cuda_1PfS_S_S_S_S_iifE4west" from 0x1400 to 0x1800 (shared memory space)
GPGPU-Sim PTX: instruction assembly for function '_Z11srad_cuda_1PfS_S_S_S_S_iif'...   done.
GPGPU-Sim PTX: allocating shared region for "_ZZ11srad_cuda_2PfS_S_S_S_S_iiffE7south_c" from 0x0 to 0x400 (shared memory space)
GPGPU-Sim PTX: allocating shared region for "_ZZ11srad_cuda_2PfS_S_S_S_S_iiffE6east_c" from 0x400 to 0x800 (shared memory space)
GPGPU-Sim PTX: allocating shared region for "_ZZ11srad_cuda_2PfS_S_S_S_S_iiffE11c_cuda_temp" from 0x800 to 0xc00 (shared memory space)
GPGPU-Sim PTX: allocating shared region for "_ZZ11srad_cuda_2PfS_S_S_S_S_iiffE13c_cuda_result" from 0xc00 to 0x1000 (shared memory space)
GPGPU-Sim PTX: allocating shared region for "_ZZ11srad_cuda_2PfS_S_S_S_S_iiffE4temp" from 0x1000 to 0x1400 (shared memory space)
GPGPU-Sim PTX: instruction assembly for function '_Z11srad_cuda_2PfS_S_S_S_S_iiff'...   done.
GPGPU-Sim PTX: finished parsing EMBEDDED .ptx file srad_v2-rodinia-2.1.sm_60.ptx
GPGPU-Sim PTX: Parsing srad_v2-rodinia-2.2.sm_62.ptx
GPGPU-Sim PTX: Warning %p0 was declared previous at srad_v2-rodinia-2.1.sm_60.ptx:38 skipping new declaration
GPGPU-Sim PTX: Warning %p1 was declared previous at srad_v2-rodinia-2.1.sm_60.ptx:38 skipping new declaration
GPGPU-Sim PTX: Warning %p2 was declared previous at srad_v2-rodinia-2.1.sm_60.ptx:38 skipping new declaration
GPGPU-Sim PTX: Warning %p3 was declared previous at srad_v2-rodinia-2.1.sm_60.ptx:38 skipping new declaration
GPGPU-Sim PTX: Warning %p4 was declared previous at srad_v2-rodinia-2.1.sm_60.ptx:38 skipping new declaration
GPGPU-Sim PTX: Warning %p5 was declared previous at srad_v2-rodinia-2.1.sm_60.ptx:38 skipping new declaration
GPGPU-Sim PTX: Warning %p6 was declared previous at srad_v2-rodinia-2.1.sm_60.ptx:38 skipping new declaration
GPGPU-Sim PTX: Warning %p7 was declared previous at srad_v2-rodinia-2.1.sm_60.ptx:38 skipping new declaration
GPGPU-Sim PTX: Warning %p8 was declared previous at srad_v2-rodinia-2.1.sm_60.ptx:38 skipping new declaration
GPGPU-Sim PTX: Warning %p9 was declared previous at srad_v2-rodinia-2.1.sm_60.ptx:38 skipping new declaration
GPGPU-Sim PTX: Warning %p10 was declared previous at srad_v2-rodinia-2.1.sm_60.ptx:38 skipping new declaration
GPGPU-Sim PTX: Warning %p11 was declared previous at srad_v2-rodinia-2.1.sm_60.ptx:38 skipping new declaration
GPGPU-Sim PTX: Warning %p12 was declared previous at srad_v2-rodinia-2.1.sm_60.ptx:38 skipping new declaration
GPGPU-Sim PTX: Warning %p13 was declared previous at srad_v2-rodinia-2.1.sm_60.ptx:38 skipping new declaration
GPGPU-Sim PTX: Warning %p14 was declared previous at srad_v2-rodinia-2.1.sm_60.ptx:38 skipping new declaration
GPGPU-Sim PTX: Warning %p15 was declared previous at srad_v2-rodinia-2.1.sm_60.ptx:38 skipping new declaration
GPGPU-Sim PTX: Warning %p16 was declared previous at srad_v2-rodinia-2.1.sm_60.ptx:38 skipping new declaration
GPGPU-Sim PTX: Warning %p17 was declared previous at srad_v2-rodinia-2.1.sm_60.ptx:38 skipping new declaration
GPGPU-Sim PTX: Warning %p18 was declared previous at srad_v2-rodinia-2.1.sm_60.ptx:38 skipping new declaration
GPGPU-Sim PTX: Warning %p19 was declared previous at srad_v2-rodinia-2.1.sm_60.ptx:38 skipping new declaration
GPGPU-Sim PTX: Warning %p20 was declared previous at srad_v2-rodinia-2.1.sm_60.ptx:38 skipping new declaration
GPGPU-Sim PTX: Warning %f0 was declared previous at srad_v2-rodinia-2.1.sm_60.ptx:39 skipping new declaration
GPGPU-Sim PTX: Warning %f1 was declared previous at srad_v2-rodinia-2.1.sm_60.ptx:39 skipping new declaration
GPGPU-Sim PTX: Warning %f2 was declared previous at srad_v2-rodinia-2.1.sm_60.ptx:39 skipping new declaration
GPGPU-Sim PTX: Warning %f3 was declared previous at srad_v2-rodinia-2.1.sm_60.ptx:39 skipping new declaration
GPGPU-Sim PTX: Warning %f4 was declared previous at srad_v2-rodinia-2.1.sm_60.ptx:39 skipping new declaration
GPGPU-Sim PTX: Warning %f5 was declared previous at srad_v2-rodinia-2.1.sm_60.ptx:39 skipping new declaration
GPGPU-Sim PTX: Warning %f6 was declared previous at srad_v2-rodinia-2.1.sm_60.ptx:39 skipping new declaration
GPGPU-Sim PTX: Warning %f7 was declared previous at srad_v2-rodinia-2.1.sm_60.ptx:39 skipping new declaration
GPGPU-Sim PTX: Warning %f8 was declared previous at srad_v2-rodinia-2.1.sm_60.ptx:39 skipping new declaration
GPGPU-Sim PTX: Warning %f9 was declared previous at srad_v2-rodinia-2.1.sm_60.ptx:39 skipping new declaration
GPGPU-Sim PTX: Warning %f10 was declared previous at srad_v2-rodinia-2.1.sm_60.ptx:39 skipping new declaration
GPGPU-Sim PTX: Warning %f11 was declared previous at srad_v2-rodinia-2.1.sm_60.ptx:39 skipping new declaration
GPGPU-Sim PTX: Warning %f12 was declared previous at srad_v2-rodinia-2.1.sm_60.ptx:39 skipping new declaration
GPGPU-Sim PTX: Warning %f13 was declared previous at srad_v2-rodinia-2.1.sm_60.ptx:39 skipping new declaration
GPGPU-Sim PTX: Warning %f14 was declared previous at srad_v2-rodinia-2.1.sm_60.ptx:39 skipping new declaration
GPGPU-Sim PTX: Warning %f15 was declared previous at srad_v2-rodinia-2.1.sm_60.ptx:39 skipping new declaration
GPGPU-Sim PTX: Warning %f16 was declared previous at srad_v2-rodinia-2.1.sm_60.ptx:39 skipping new declaration
GPGPU-Sim PTX: Warning %f17 was declared previous at srad_v2-rodinia-2.1.sm_60.ptx:39 skipping new declaration
GPGPU-Sim PTX: Warning %f18 was declared previous at srad_v2-rodinia-2.1.sm_60.ptx:39 skipping new declaration
GPGPU-Sim PTX: Warning %f19 was declared previous at srad_v2-rodinia-2.1.sm_60.ptx:39 skipping new declaration
GPGPU-Sim PTX: Warning %f20 was declared previous at srad_v2-rodinia-2.1.sm_60.ptx:39 skipping new declaration
GPGPU-Sim PTX: Warning %f21 was declared previous at srad_v2-rodinia-2.1.sm_60.ptx:39 skipping new declaration
GPGPU-Sim PTX: Warning %f22 was declared previous at srad_v2-rodinia-2.1.sm_60.ptx:39 skipping new declaration
GPGPU-Sim PTX: Warning %f23 was declared previous at srad_v2-rodinia-2.1.sm_60.ptx:39 skipping new declaration
GPGPU-Sim PTX: Warning %f24 was declared previous at srad_v2-rodinia-2.1.sm_60.ptx:39 skipping new declaration
GPGPU-Sim PTX: Warning %f25 was declared previous at srad_v2-rodinia-2.1.sm_60.ptx:39 skipping new declaration
GPGPU-Sim PTX: Warning %f26 was declared previous at srad_v2-rodinia-2.1.sm_60.ptx:39 skipping new declaration
GPGPU-Sim PTX: Warning %f27 was declared previous at srad_v2-rodinia-2.1.sm_60.ptx:39 skipping new declaration
GPGPU-Sim PTX: Warning %f28 was declared previous at srad_v2-rodinia-2.1.sm_60.ptx:39 skipping new declaration
GPGPU-Sim PTX: Warning %f29 was declared previous at srad_v2-rodinia-2.1.sm_60.ptx:39 skipping new declaration
GPGPU-Sim PTX: Warning %f30 was declared previous at srad_v2-rodinia-2.1.sm_60.ptx:39 skipping new declaration
GPGPU-Sim PTX: Warning %f31 was declared previous at srad_v2-rodinia-2.1.sm_60.ptx:39 skipping new declaration
GPGPU-Sim PTX: Warning %f32 was declared previous at srad_v2-rodinia-2.1.sm_60.ptx:39 skipping new declaration
GPGPU-Sim PTX: Warning %f33 was declared previous at srad_v2-rodinia-2.1.sm_60.ptx:39 skipping new declaration
GPGPU-Sim PTX: Warning %f34 was declared previous at srad_v2-rodinia-2.1.sm_60.ptx:39 skipping new declaration
GPGPU-Sim PTX: Warning %f35 was declared previous at srad_v2-rodinia-2.1.sm_60.ptx:39 skipping new declaration
GPGPU-Sim PTX: Warning %f36 was declared previous at srad_v2-rodinia-2.1.sm_60.ptx:39 skipping new declaration
GPGPU-Sim PTX: Warning %f37 was declared previous at srad_v2-rodinia-2.1.sm_60.ptx:39 skipping new declaration
GPGPU-Sim PTX: Warning %f38 was declared previous at srad_v2-rodinia-2.1.sm_60.ptx:39 skipping new declaration
GPGPU-Sim PTX: Warning %f39 was declared previous at srad_v2-rodinia-2.1.sm_60.ptx:39 skipping new declaration
GPGPU-Sim PTX: Warning %f40 was declared previous at srad_v2-rodinia-2.1.sm_60.ptx:39 skipping new declaration
GPGPU-Sim PTX: Warning %r0 was declared previous at srad_v2-rodinia-2.1.sm_60.ptx:40 skipping new declaration
GPGPU-Sim PTX: Warning %r1 was declared previous at srad_v2-rodinia-2.1.sm_60.ptx:40 skipping new declaration
GPGPU-Sim PTX: Warning %r2 was declared previous at srad_v2-rodinia-2.1.sm_60.ptx:40 skipping new declaration
GPGPU-Sim PTX: Warning %r3 was declared previous at srad_v2-rodinia-2.1.sm_60.ptx:40 skipping new declaration
GPGPU-Sim PTX: Warning %r4 was declared previous at srad_v2-rodinia-2.1.sm_60.ptx:40 skipping new declaration
GPGPU-Sim PTX: Warning %r5 was declared previous at srad_v2-rodinia-2.1.sm_60.ptx:40 skipping new declaration
GPGPU-Sim PTX: Warning %r6 was declared previous at srad_v2-rodinia-2.1.sm_60.ptx:40 skipping new declaration
GPGPU-Sim PTX: Warning %r7 was declared previous at srad_v2-rodinia-2.1.sm_60.ptx:40 skipping new declaration
GPGPU-Sim PTX: Warning %r8 was declared previous at srad_v2-rodinia-2.1.sm_60.ptx:40 skipping new declaration
GPGPU-Sim PTX: Warning %r9 was declared previous at srad_v2-rodinia-2.1.sm_60.ptx:40 skipping new declaration
GPGPU-Sim PTX: Warning %r10 was declared previous at srad_v2-rodinia-2.1.sm_60.ptx:40 skipping new declaration
GPGPU-Sim PTX: Warning %r11 was declared previous at srad_v2-rodinia-2.1.sm_60.ptx:40 skipping new declaration
GPGPU-Sim PTX: Warning %r12 was declared previous at srad_v2-rodinia-2.1.sm_60.ptx:40 skipping new declaration
GPGPU-Sim PTX: Warning %r13 was declared previous at srad_v2-rodinia-2.1.sm_60.ptx:40 skipping new declaration
GPGPU-Sim PTX: Warning %r14 was declared previous at srad_v2-rodinia-2.1.sm_60.ptx:40 skipping new declaration
GPGPU-Sim PTX: Warning %r15 was declared previous at srad_v2-rodinia-2.1.sm_60.ptx:40 skipping new declaration
GPGPU-Sim PTX: Warning %r16 was declared previous at srad_v2-rodinia-2.1.sm_60.ptx:40 skipping new declaration
GPGPU-Sim PTX: Warning %r17 was declared previous at srad_v2-rodinia-2.1.sm_60.ptx:40 skipping new declaration
GPGPU-Sim PTX: Warning %r18 was declared previous at srad_v2-rodinia-2.1.sm_60.ptx:40 skipping new declaration
GPGPU-Sim PTX: Warning %r19 was declared previous at srad_v2-rodinia-2.1.sm_60.ptx:40 skipping new declaration
GPGPU-Sim PTX: Warning %r20 was declared previous at srad_v2-rodinia-2.1.sm_60.ptx:40 skipping new declaration
GPGPU-Sim PTX: Warning %r21 was declared previous at srad_v2-rodinia-2.1.sm_60.ptx:40 skipping new declaration
GPGPU-Sim PTX: Warning %r22 was declared previous at srad_v2-rodinia-2.1.sm_60.ptx:40 skipping new declaration
GPGPU-Sim PTX: Warning %r23 was declared previous at srad_v2-rodinia-2.1.sm_60.ptx:40 skipping new declaration
GPGPU-Sim PTX: Warning %r24 was declared previous at srad_v2-rodinia-2.1.sm_60.ptx:40 skipping new declaration
GPGPU-Sim PTX: Warning %r25 was declared previous at srad_v2-rodinia-2.1.sm_60.ptx:40 skipping new declaration
GPGPU-Sim PTX: Warning %r26 was declared previous at srad_v2-rodinia-2.1.sm_60.ptx:40 skipping new declaration
GPGPU-Sim PTX: Warning %r27 was declared previous at srad_v2-rodinia-2.1.sm_60.ptx:40 skipping new declaration
GPGPU-Sim PTX: Warning %r28 was declared previous at srad_v2-rodinia-2.1.sm_60.ptx:40 skipping new declaration
GPGPU-Sim PTX: Warning %r29 was declared previous at srad_v2-rodinia-2.1.sm_60.ptx:40 skipping new declaration
GPGPU-Sim PTX: Warning %r30 was declared previous at srad_v2-rodinia-2.1.sm_60.ptx:40 skipping new declaration
GPGPU-Sim PTX: Warning %r31 was declared previous at srad_v2-rodinia-2.1.sm_60.ptx:40 skipping new declaration
GPGPU-Sim PTX: Warning %r32 was declared previous at srad_v2-rodinia-2.1.sm_60.ptx:40 skipping new declaration
GPGPU-Sim PTX: Warning %r33 was declared previous at srad_v2-rodinia-2.1.sm_60.ptx:40 skipping new declaration
GPGPU-Sim PTX: Warning %r34 was declared previous at srad_v2-rodinia-2.1.sm_60.ptx:40 skipping new declaration
GPGPU-Sim PTX: Warning %r35 was declared previous at srad_v2-rodinia-2.1.sm_60.ptx:40 skipping new declaration
GPGPU-Sim PTX: Warning %r36 was declared previous at srad_v2-rodinia-2.1.sm_60.ptx:40 skipping new declaration
GPGPU-Sim PTX: Warning %r37 was declared previous at srad_v2-rodinia-2.1.sm_60.ptx:40 skipping new declaration
GPGPU-Sim PTX: Warning %r38 was declared previous at srad_v2-rodinia-2.1.sm_60.ptx:40 skipping new declaration
GPGPU-Sim PTX: Warning %r39 was declared previous at srad_v2-rodinia-2.1.sm_60.ptx:40 skipping new declaration
GPGPU-Sim PTX: Warning %r40 was declared previous at srad_v2-rodinia-2.1.sm_60.ptx:40 skipping new declaration
GPGPU-Sim PTX: Warning %r41 was declared previous at srad_v2-rodinia-2.1.sm_60.ptx:40 skipping new declaration
GPGPU-Sim PTX: Warning %r42 was declared previous at srad_v2-rodinia-2.1.sm_60.ptx:40 skipping new declaration
GPGPU-Sim PTX: Warning %r43 was declared previous at srad_v2-rodinia-2.1.sm_60.ptx:40 skipping new declaration
GPGPU-Sim PTX: Warning %r44 was declared previous at srad_v2-rodinia-2.1.sm_60.ptx:40 skipping new declaration
GPGPU-Sim PTX: Warning %r45 was declared previous at srad_v2-rodinia-2.1.sm_60.ptx:40 skipping new declaration
GPGPU-Sim PTX: Warning %r46 was declared previous at srad_v2-rodinia-2.1.sm_60.ptx:40 skipping new declaration
GPGPU-Sim PTX: Warning %r47 was declared previous at srad_v2-rodinia-2.1.sm_60.ptx:40 skipping new declaration
GPGPU-Sim PTX: Warning %r48 was declared previous at srad_v2-rodinia-2.1.sm_60.ptx:40 skipping new declaration
GPGPU-Sim PTX: Warning %r49 was declared previous at srad_v2-rodinia-2.1.sm_60.ptx:40 skipping new declaration
GPGPU-Sim PTX: Warning %r50 was declared previous at srad_v2-rodinia-2.1.sm_60.ptx:40 skipping new declaration
GPGPU-Sim PTX: Warning %r51 was declared previous at srad_v2-rodinia-2.1.sm_60.ptx:40 skipping new declaration
GPGPU-Sim PTX: Warning %r52 was declared previous at srad_v2-rodinia-2.1.sm_60.ptx:40 skipping new declaration
GPGPU-Sim PTX: Warning %r53 was declared previous at srad_v2-rodinia-2.1.sm_60.ptx:40 skipping new declaration
GPGPU-Sim PTX: Warning %r54 was declared previous at srad_v2-rodinia-2.1.sm_60.ptx:40 skipping new declaration
GPGPU-Sim PTX: Warning %r55 was declared previous at srad_v2-rodinia-2.1.sm_60.ptx:40 skipping new declaration
GPGPU-Sim PTX: Warning %r56 was declared previous at srad_v2-rodinia-2.1.sm_60.ptx:40 skipping new declaration
GPGPU-Sim PTX: Warning %r57 was declared previous at srad_v2-rodinia-2.1.sm_60.ptx:40 skipping new declaration
GPGPU-Sim PTX: Warning %r58 was declared previous at srad_v2-rodinia-2.1.sm_60.ptx:40 skipping new declaration
GPGPU-Sim PTX: Warning %r59 was declared previous at srad_v2-rodinia-2.1.sm_60.ptx:40 skipping new declaration
GPGPU-Sim PTX: Warning %r60 was declared previous at srad_v2-rodinia-2.1.sm_60.ptx:40 skipping new declaration
GPGPU-Sim PTX: Warning %r61 was declared previous at srad_v2-rodinia-2.1.sm_60.ptx:40 skipping new declaration
GPGPU-Sim PTX: Warning %r62 was declared previous at srad_v2-rodinia-2.1.sm_60.ptx:40 skipping new declaration
GPGPU-Sim PTX: Warning %r63 was declared previous at srad_v2-rodinia-2.1.sm_60.ptx:40 skipping new declaration
GPGPU-Sim PTX: Warning %r64 was declared previous at srad_v2-rodinia-2.1.sm_60.ptx:40 skipping new declaration
GPGPU-Sim PTX: Warning %r65 was declared previous at srad_v2-rodinia-2.1.sm_60.ptx:40 skipping new declaration
GPGPU-Sim PTX: Warning %r66 was declared previous at srad_v2-rodinia-2.1.sm_60.ptx:40 skipping new declaration
GPGPU-Sim PTX: Warning %r67 was declared previous at srad_v2-rodinia-2.1.sm_60.ptx:40 skipping new declaration
GPGPU-Sim PTX: Warning %r68 was declared previous at srad_v2-rodinia-2.1.sm_60.ptx:40 skipping new declaration
GPGPU-Sim PTX: Warning %r69 was declared previous at srad_v2-rodinia-2.1.sm_60.ptx:40 skipping new declaration
GPGPU-Sim PTX: Warning %r70 was declared previous at srad_v2-rodinia-2.1.sm_60.ptx:40 skipping new declaration
GPGPU-Sim PTX: Warning %r71 was declared previous at srad_v2-rodinia-2.1.sm_60.ptx:40 skipping new declaration
GPGPU-Sim PTX: Warning %r72 was declared previous at srad_v2-rodinia-2.1.sm_60.ptx:40 skipping new declaration
GPGPU-Sim PTX: Warning %r73 was declared previous at srad_v2-rodinia-2.1.sm_60.ptx:40 skipping new declaration
GPGPU-Sim PTX: Warning %r74 was declared previous at srad_v2-rodinia-2.1.sm_60.ptx:40 skipping new declaration
GPGPU-Sim PTX: Warning %r75 was declared previous at srad_v2-rodinia-2.1.sm_60.ptx:40 skipping new declaration
GPGPU-Sim PTX: Warning %r76 was declared previous at srad_v2-rodinia-2.1.sm_60.ptx:40 skipping new declaration
GPGPU-Sim PTX: Warning %r77 was declared previous at srad_v2-rodinia-2.1.sm_60.ptx:40 skipping new declaration
GPGPU-Sim PTX: Warning %r78 was declared previous at srad_v2-rodinia-2.1.sm_60.ptx:40 skipping new declaration
GPGPU-Sim PTX: Warning %r79 was declared previous at srad_v2-rodinia-2.1.sm_60.ptx:40 skipping new declaration
GPGPU-Sim PTX: Warning %r80 was declared previous at srad_v2-rodinia-2.1.sm_60.ptx:40 skipping new declaration
GPGPU-Sim PTX: Warning %r81 was declared previous at srad_v2-rodinia-2.1.sm_60.ptx:40 skipping new declaration
GPGPU-Sim PTX: Warning %r82 was declared previous at srad_v2-rodinia-2.1.sm_60.ptx:40 skipping new declaration
GPGPU-Sim PTX: Warning %r83 was declared previous at srad_v2-rodinia-2.1.sm_60.ptx:40 skipping new declaration
GPGPU-Sim PTX: Warning %r84 was declared previous at srad_v2-rodinia-2.1.sm_60.ptx:40 skipping new declaration
GPGPU-Sim PTX: Warning %r85 was declared previous at srad_v2-rodinia-2.1.sm_60.ptx:40 skipping new declaration
GPGPU-Sim PTX: Warning %r86 was declared previous at srad_v2-rodinia-2.1.sm_60.ptx:40 skipping new declaration
GPGPU-Sim PTX: Warning %r87 was declared previous at srad_v2-rodinia-2.1.sm_60.ptx:40 skipping new declaration
GPGPU-Sim PTX: Warning %r88 was declared previous at srad_v2-rodinia-2.1.sm_60.ptx:40 skipping new declaration
GPGPU-Sim PTX: Warning %r89 was declared previous at srad_v2-rodinia-2.1.sm_60.ptx:40 skipping new declaration
GPGPU-Sim PTX: Warning %r90 was declared previous at srad_v2-rodinia-2.1.sm_60.ptx:40 skipping new declaration
GPGPU-Sim PTX: Warning %r91 was declared previous at srad_v2-rodinia-2.1.sm_60.ptx:40 skipping new declaration
GPGPU-Sim PTX: Warning %r92 was declared previous at srad_v2-rodinia-2.1.sm_60.ptx:40 skipping new declaration
GPGPU-Sim PTX: Warning %r93 was declared previous at srad_v2-rodinia-2.1.sm_60.ptx:40 skipping new declaration
GPGPU-Sim PTX: Warning %r94 was declared previous at srad_v2-rodinia-2.1.sm_60.ptx:40 skipping new declaration
GPGPU-Sim PTX: Warning %r95 was declared previous at srad_v2-rodinia-2.1.sm_60.ptx:40 skipping new declaration
GPGPU-Sim PTX: Warning %r96 was declared previous at srad_v2-rodinia-2.1.sm_60.ptx:40 skipping new declaration
GPGPU-Sim PTX: Warning %r97 was declared previous at srad_v2-rodinia-2.1.sm_60.ptx:40 skipping new declaration
GPGPU-Sim PTX: Warning %r98 was declared previous at srad_v2-rodinia-2.1.sm_60.ptx:40 skipping new declaration
GPGPU-Sim PTX: Warning %r99 was declared previous at srad_v2-rodinia-2.1.sm_60.ptx:40 skipping new declaration
GPGPU-Sim PTX: Warning %r100 was declared previous at srad_v2-rodinia-2.1.sm_60.ptx:40 skipping new declaration
GPGPU-Sim PTX: Warning %r101 was declared previous at srad_v2-rodinia-2.1.sm_60.ptx:40 skipping new declaration
GPGPU-Sim PTX: Warning %r102 was declared previous at srad_v2-rodinia-2.1.sm_60.ptx:40 skipping new declaration
GPGPU-Sim PTX: Warning %r103 was declared previous at srad_v2-rodinia-2.1.sm_60.ptx:40 skipping new declaration
GPGPU-Sim PTX: Warning %r104 was declared previous at srad_v2-rodinia-2.1.sm_60.ptx:40 skipping new declaration
GPGPU-Sim PTX: Warning %r105 was declared previous at srad_v2-rodinia-2.1.sm_60.ptx:40 skipping new declaration
GPGPU-Sim PTX: Warning %r106 was declared previous at srad_v2-rodinia-2.1.sm_60.ptx:40 skipping new declaration
GPGPU-Sim PTX: Warning %r107 was declared previous at srad_v2-rodinia-2.1.sm_60.ptx:40 skipping new declaration
GPGPU-Sim PTX: Warning %r108 was declared previous at srad_v2-rodinia-2.1.sm_60.ptx:40 skipping new declaration
GPGPU-Sim PTX: Warning %r109 was declared previous at srad_v2-rodinia-2.1.sm_60.ptx:40 skipping new declaration
GPGPU-Sim PTX: Warning %r110 was declared previous at srad_v2-rodinia-2.1.sm_60.ptx:40 skipping new declaration
GPGPU-Sim PTX: Warning %r111 was declared previous at srad_v2-rodinia-2.1.sm_60.ptx:40 skipping new declaration
GPGPU-Sim PTX: Warning %r112 was declared previous at srad_v2-rodinia-2.1.sm_60.ptx:40 skipping new declaration
GPGPU-Sim PTX: Warning %r113 was declared previous at srad_v2-rodinia-2.1.sm_60.ptx:40 skipping new declaration
GPGPU-Sim PTX: Warning %r114 was declared previous at srad_v2-rodinia-2.1.sm_60.ptx:40 skipping new declaration
GPGPU-Sim PTX: Warning %r115 was declared previous at srad_v2-rodinia-2.1.sm_60.ptx:40 skipping new declaration
GPGPU-Sim PTX: Warning %r116 was declared previous at srad_v2-rodinia-2.1.sm_60.ptx:40 skipping new declaration
GPGPU-Sim PTX: Warning %r117 was declared previous at srad_v2-rodinia-2.1.sm_60.ptx:40 skipping new declaration
GPGPU-Sim PTX: Warning %r118 was declared previous at srad_v2-rodinia-2.1.sm_60.ptx:40 skipping new declaration
GPGPU-Sim PTX: Warning %r119 was declared previous at srad_v2-rodinia-2.1.sm_60.ptx:40 skipping new declaration
GPGPU-Sim PTX: Warning %r120 was declared previous at srad_v2-rodinia-2.1.sm_60.ptx:40 skipping new declaration
GPGPU-Sim PTX: Warning %r121 was declared previous at srad_v2-rodinia-2.1.sm_60.ptx:40 skipping new declaration
GPGPU-Sim PTX: Warning %r122 was declared previous at srad_v2-rodinia-2.1.sm_60.ptx:40 skipping new declaration
GPGPU-Sim PTX: Warning %r123 was declared previous at srad_v2-rodinia-2.1.sm_60.ptx:40 skipping new declaration
GPGPU-Sim PTX: Warning %r124 was declared previous at srad_v2-rodinia-2.1.sm_60.ptx:40 skipping new declaration
GPGPU-Sim PTX: Warning %r125 was declared previous at srad_v2-rodinia-2.1.sm_60.ptx:40 skipping new declaration
GPGPU-Sim PTX: Warning %r126 was declared previous at srad_v2-rodinia-2.1.sm_60.ptx:40 skipping new declaration
GPGPU-Sim PTX: Warning %r127 was declared previous at srad_v2-rodinia-2.1.sm_60.ptx:40 skipping new declaration
GPGPU-Sim PTX: Warning %r128 was declared previous at srad_v2-rodinia-2.1.sm_60.ptx:40 skipping new declaration
GPGPU-Sim PTX: Warning %r129 was declared previous at srad_v2-rodinia-2.1.sm_60.ptx:40 skipping new declaration
GPGPU-Sim PTX: Warning %r130 was declared previous at srad_v2-rodinia-2.1.sm_60.ptx:40 skipping new declaration
GPGPU-Sim PTX: Warning %r131 was declared previous at srad_v2-rodinia-2.1.sm_60.ptx:40 skipping new declaration
GPGPU-Sim PTX: Warning %r132 was declared previous at srad_v2-rodinia-2.1.sm_60.ptx:40 skipping new declaration
GPGPU-Sim PTX: Warning %r133 was declared previous at srad_v2-rodinia-2.1.sm_60.ptx:40 skipping new declaration
GPGPU-Sim PTX: Warning %r134 was declared previous at srad_v2-rodinia-2.1.sm_60.ptx:40 skipping new declaration
GPGPU-Sim PTX: Warning %r135 was declared previous at srad_v2-rodinia-2.1.sm_60.ptx:40 skipping new declaration
GPGPU-Sim PTX: Warning %r136 was declared previous at srad_v2-rodinia-2.1.sm_60.ptx:40 skipping new declaration
GPGPU-Sim PTX: Warning %r137 was declared previous at srad_v2-rodinia-2.1.sm_60.ptx:40 skipping new declaration
GPGPU-Sim PTX: Warning %r138 was declared previous at srad_v2-rodinia-2.1.sm_60.ptx:40 skipping new declaration
GPGPU-Sim PTX: Warning %r139 was declared previous at srad_v2-rodinia-2.1.sm_60.ptx:40 skipping new declaration
GPGPU-Sim PTX: Warning %r140 was declared previous at srad_v2-rodinia-2.1.sm_60.ptx:40 skipping new declaration
GPGPU-Sim PTX: Warning %r141 was declared previous at srad_v2-rodinia-2.1.sm_60.ptx:40 skipping new declaration
GPGPU-Sim PTX: Warning %r142 was declared previous at srad_v2-rodinia-2.1.sm_60.ptx:40 skipping new declaration
GPGPU-Sim PTX: Warning %r143 was declared previous at srad_v2-rodinia-2.1.sm_60.ptx:40 skipping new declaration
GPGPU-Sim PTX: Warning %r144 was declared previous at srad_v2-rodinia-2.1.sm_60.ptx:40 skipping new declaration
GPGPU-Sim PTX: Warning %r145 was declared previous at srad_v2-rodinia-2.1.sm_60.ptx:40 skipping new declaration
GPGPU-Sim PTX: Warning %r146 was declared previous at srad_v2-rodinia-2.1.sm_60.ptx:40 skipping new declaration
GPGPU-Sim PTX: Warning %r147 was declared previous at srad_v2-rodinia-2.1.sm_60.ptx:40 skipping new declaration
GPGPU-Sim PTX: Warning %r148 was declared previous at srad_v2-rodinia-2.1.sm_60.ptx:40 skipping new declaration
GPGPU-Sim PTX: Warning %r149 was declared previous at srad_v2-rodinia-2.1.sm_60.ptx:40 skipping new declaration
GPGPU-Sim PTX: Warning %r150 was declared previous at srad_v2-rodinia-2.1.sm_60.ptx:40 skipping new declaration
GPGPU-Sim PTX: Warning %r151 was declared previous at srad_v2-rodinia-2.1.sm_60.ptx:40 skipping new declaration
GPGPU-Sim PTX: Warning %r152 was declared previous at srad_v2-rodinia-2.1.sm_60.ptx:40 skipping new declaration
GPGPU-Sim PTX: Warning %r153 was declared previous at srad_v2-rodinia-2.1.sm_60.ptx:40 skipping new declaration
GPGPU-Sim PTX: Warning %r154 was declared previous at srad_v2-rodinia-2.1.sm_60.ptx:40 skipping new declaration
GPGPU-Sim PTX: Warning %r155 was declared previous at srad_v2-rodinia-2.1.sm_60.ptx:40 skipping new declaration
GPGPU-Sim PTX: Warning %r156 was declared previous at srad_v2-rodinia-2.1.sm_60.ptx:40 skipping new declaration
GPGPU-Sim PTX: Warning %fd0 was declared previous at srad_v2-rodinia-2.1.sm_60.ptx:41 skipping new declaration
GPGPU-Sim PTX: Warning %fd1 was declared previous at srad_v2-rodinia-2.1.sm_60.ptx:41 skipping new declaration
GPGPU-Sim PTX: Warning %fd2 was declared previous at srad_v2-rodinia-2.1.sm_60.ptx:41 skipping new declaration
GPGPU-Sim PTX: Warning %fd3 was declared previous at srad_v2-rodinia-2.1.sm_60.ptx:41 skipping new declaration
GPGPU-Sim PTX: Warning %fd4 was declared previous at srad_v2-rodinia-2.1.sm_60.ptx:41 skipping new declaration
GPGPU-Sim PTX: Warning %fd5 was declared previous at srad_v2-rodinia-2.1.sm_60.ptx:41 skipping new declaration
GPGPU-Sim PTX: Warning %fd6 was declared previous at srad_v2-rodinia-2.1.sm_60.ptx:41 skipping new declaration
GPGPU-Sim PTX: Warning %fd7 was declared previous at srad_v2-rodinia-2.1.sm_60.ptx:41 skipping new declaration
GPGPU-Sim PTX: Warning %fd8 was declared previous at srad_v2-rodinia-2.1.sm_60.ptx:41 skipping new declaration
GPGPU-Sim PTX: Warning %fd9 was declared previous at srad_v2-rodinia-2.1.sm_60.ptx:41 skipping new declaration
GPGPU-Sim PTX: Warning %rd0 was declared previous at srad_v2-rodinia-2.1.sm_60.ptx:42 skipping new declaration
GPGPU-Sim PTX: Warning %rd1 was declared previous at srad_v2-rodinia-2.1.sm_60.ptx:42 skipping new declaration
GPGPU-Sim PTX: Warning %rd2 was declared previous at srad_v2-rodinia-2.1.sm_60.ptx:42 skipping new declaration
GPGPU-Sim PTX: Warning %rd3 was declared previous at srad_v2-rodinia-2.1.sm_60.ptx:42 skipping new declaration
GPGPU-Sim PTX: Warning %rd4 was declared previous at srad_v2-rodinia-2.1.sm_60.ptx:42 skipping new declaration
GPGPU-Sim PTX: Warning %rd5 was declared previous at srad_v2-rodinia-2.1.sm_60.ptx:42 skipping new declaration
GPGPU-Sim PTX: Warning %rd6 was declared previous at srad_v2-rodinia-2.1.sm_60.ptx:42 skipping new declaration
GPGPU-Sim PTX: Warning %rd7 was declared previous at srad_v2-rodinia-2.1.sm_60.ptx:42 skipping new declaration
GPGPU-Sim PTX: Warning %rd8 was declared previous at srad_v2-rodinia-2.1.sm_60.ptx:42 skipping new declaration
GPGPU-Sim PTX: Warning %rd9 was declared previous at srad_v2-rodinia-2.1.sm_60.ptx:42 skipping new declaration
GPGPU-Sim PTX: Warning %rd10 was declared previous at srad_v2-rodinia-2.1.sm_60.ptx:42 skipping new declaration
GPGPU-Sim PTX: Warning %rd11 was declared previous at srad_v2-rodinia-2.1.sm_60.ptx:42 skipping new declaration
GPGPU-Sim PTX: Warning %rd12 was declared previous at srad_v2-rodinia-2.1.sm_60.ptx:42 skipping new declaration
GPGPU-Sim PTX: Warning %rd13 was declared previous at srad_v2-rodinia-2.1.sm_60.ptx:42 skipping new declaration
GPGPU-Sim PTX: Warning %rd14 was declared previous at srad_v2-rodinia-2.1.sm_60.ptx:42 skipping new declaration
GPGPU-Sim PTX: Warning %rd15 was declared previous at srad_v2-rodinia-2.1.sm_60.ptx:42 skipping new declaration
GPGPU-Sim PTX: Warning %rd16 was declared previous at srad_v2-rodinia-2.1.sm_60.ptx:42 skipping new declaration
GPGPU-Sim PTX: Warning %rd17 was declared previous at srad_v2-rodinia-2.1.sm_60.ptx:42 skipping new declaration
GPGPU-Sim PTX: Warning %rd18 was declared previous at srad_v2-rodinia-2.1.sm_60.ptx:42 skipping new declaration
GPGPU-Sim PTX: Warning %rd19 was declared previous at srad_v2-rodinia-2.1.sm_60.ptx:42 skipping new declaration
GPGPU-Sim PTX: Warning %rd20 was declared previous at srad_v2-rodinia-2.1.sm_60.ptx:42 skipping new declaration
GPGPU-Sim PTX: Warning %rd21 was declared previous at srad_v2-rodinia-2.1.sm_60.ptx:42 skipping new declaration
GPGPU-Sim PTX: Warning %rd22 was declared previous at srad_v2-rodinia-2.1.sm_60.ptx:42 skipping new declaration
GPGPU-Sim PTX: Warning %rd23 was declared previous at srad_v2-rodinia-2.1.sm_60.ptx:42 skipping new declaration
GPGPU-Sim PTX: Warning %rd24 was declared previous at srad_v2-rodinia-2.1.sm_60.ptx:42 skipping new declaration
GPGPU-Sim PTX: Warning %rd25 was declared previous at srad_v2-rodinia-2.1.sm_60.ptx:42 skipping new declaration
GPGPU-Sim PTX: Warning %rd26 was declared previous at srad_v2-rodinia-2.1.sm_60.ptx:42 skipping new declaration
GPGPU-Sim PTX: Warning %rd27 was declared previous at srad_v2-rodinia-2.1.sm_60.ptx:42 skipping new declaration
GPGPU-Sim PTX: Warning %rd28 was declared previous at srad_v2-rodinia-2.1.sm_60.ptx:42 skipping new declaration
GPGPU-Sim PTX: Warning %rd29 was declared previous at srad_v2-rodinia-2.1.sm_60.ptx:42 skipping new declaration
GPGPU-Sim PTX: Warning %rd30 was declared previous at srad_v2-rodinia-2.1.sm_60.ptx:42 skipping new declaration
GPGPU-Sim PTX: Warning %rd31 was declared previous at srad_v2-rodinia-2.1.sm_60.ptx:42 skipping new declaration
GPGPU-Sim PTX: Warning %rd32 was declared previous at srad_v2-rodinia-2.1.sm_60.ptx:42 skipping new declaration
GPGPU-Sim PTX: Warning %rd33 was declared previous at srad_v2-rodinia-2.1.sm_60.ptx:42 skipping new declaration
GPGPU-Sim PTX: Warning %rd34 was declared previous at srad_v2-rodinia-2.1.sm_60.ptx:42 skipping new declaration
GPGPU-Sim PTX: Warning _ZZ11srad_cuda_1PfS_S_S_S_S_iifE4temp was declared previous at srad_v2-rodinia-2.1.sm_60.ptx:44 skipping new declaration
GPGPU-Sim PTX: Warning _ZZ11srad_cuda_1PfS_S_S_S_S_iifE11temp_result was declared previous at srad_v2-rodinia-2.1.sm_60.ptx:46 skipping new declaration
GPGPU-Sim PTX: Warning _ZZ11srad_cuda_1PfS_S_S_S_S_iifE5north was declared previous at srad_v2-rodinia-2.1.sm_60.ptx:48 skipping new declaration
GPGPU-Sim PTX: Warning _ZZ11srad_cuda_1PfS_S_S_S_S_iifE5south was declared previous at srad_v2-rodinia-2.1.sm_60.ptx:50 skipping new declaration
GPGPU-Sim PTX: Warning _ZZ11srad_cuda_1PfS_S_S_S_S_iifE4east was declared previous at srad_v2-rodinia-2.1.sm_60.ptx:52 skipping new declaration
GPGPU-Sim PTX: Warning _ZZ11srad_cuda_1PfS_S_S_S_S_iifE4west was declared previous at srad_v2-rodinia-2.1.sm_60.ptx:54 skipping new declaration
GPGPU-Sim PTX: instruction assembly for function '_Z11srad_cuda_1PfS_S_S_S_S_iif'...   done.
GPGPU-Sim PTX: Warning %p0 was declared previous at srad_v2-rodinia-2.1.sm_60.ptx:356 skipping new declaration
GPGPU-Sim PTX: Warning %p1 was declared previous at srad_v2-rodinia-2.1.sm_60.ptx:356 skipping new declaration
GPGPU-Sim PTX: Warning %p2 was declared previous at srad_v2-rodinia-2.1.sm_60.ptx:356 skipping new declaration
GPGPU-Sim PTX: Warning %p3 was declared previous at srad_v2-rodinia-2.1.sm_60.ptx:356 skipping new declaration
GPGPU-Sim PTX: Warning %p4 was declared previous at srad_v2-rodinia-2.1.sm_60.ptx:356 skipping new declaration
GPGPU-Sim PTX: Warning %p5 was declared previous at srad_v2-rodinia-2.1.sm_60.ptx:356 skipping new declaration
GPGPU-Sim PTX: Warning %p6 was declared previous at srad_v2-rodinia-2.1.sm_60.ptx:356 skipping new declaration
GPGPU-Sim PTX: Warning %p7 was declared previous at srad_v2-rodinia-2.1.sm_60.ptx:356 skipping new declaration
GPGPU-Sim PTX: Warning %f0 was declared previous at srad_v2-rodinia-2.1.sm_60.ptx:357 skipping new declaration
GPGPU-Sim PTX: Warning %f1 was declared previous at srad_v2-rodinia-2.1.sm_60.ptx:357 skipping new declaration
GPGPU-Sim PTX: Warning %f2 was declared previous at srad_v2-rodinia-2.1.sm_60.ptx:357 skipping new declaration
GPGPU-Sim PTX: Warning %f3 was declared previous at srad_v2-rodinia-2.1.sm_60.ptx:357 skipping new declaration
GPGPU-Sim PTX: Warning %f4 was declared previous at srad_v2-rodinia-2.1.sm_60.ptx:357 skipping new declaration
GPGPU-Sim PTX: Warning %f5 was declared previous at srad_v2-rodinia-2.1.sm_60.ptx:357 skipping new declaration
GPGPU-Sim PTX: Warning %f6 was declared previous at srad_v2-rodinia-2.1.sm_60.ptx:357 skipping new declaration
GPGPU-Sim PTX: Warning %f7 was declared previous at srad_v2-rodinia-2.1.sm_60.ptx:357 skipping new declaration
GPGPU-Sim PTX: Warning %f8 was declared previous at srad_v2-rodinia-2.1.sm_60.ptx:357 skipping new declaration
GPGPU-Sim PTX: Warning %f9 was declared previous at srad_v2-rodinia-2.1.sm_60.ptx:357 skipping new declaration
GPGPU-Sim PTX: Warning %f10 was declared previous at srad_v2-rodinia-2.1.sm_60.ptx:357 skipping new declaration
GPGPU-Sim PTX: Warning %f11 was declared previous at srad_v2-rodinia-2.1.sm_60.ptx:357 skipping new declaration
GPGPU-Sim PTX: Warning %f12 was declared previous at srad_v2-rodinia-2.1.sm_60.ptx:357 skipping new declaration
GPGPU-Sim PTX: Warning %f13 was declared previous at srad_v2-rodinia-2.1.sm_60.ptx:357 skipping new declaration
GPGPU-Sim PTX: Warning %f14 was declared previous at srad_v2-rodinia-2.1.sm_60.ptx:357 skipping new declaration
GPGPU-Sim PTX: Warning %f15 was declared previous at srad_v2-rodinia-2.1.sm_60.ptx:357 skipping new declaration
GPGPU-Sim PTX: Warning %f16 was declared previous at srad_v2-rodinia-2.1.sm_60.ptx:357 skipping new declaration
GPGPU-Sim PTX: Warning %f17 was declared previous at srad_v2-rodinia-2.1.sm_60.ptx:357 skipping new declaration
GPGPU-Sim PTX: Warning %f18 was declared previous at srad_v2-rodinia-2.1.sm_60.ptx:357 skipping new declaration
GPGPU-Sim PTX: Warning %f19 was declared previous at srad_v2-rodinia-2.1.sm_60.ptx:357 skipping new declaration
GPGPU-Sim PTX: Warning %f20 was declared previous at srad_v2-rodinia-2.1.sm_60.ptx:357 skipping new declaration
GPGPU-Sim PTX: Warning %f21 was declared previous at srad_v2-rodinia-2.1.sm_60.ptx:357 skipping new declaration
GPGPU-Sim PTX: Warning %r0 was declared previous at srad_v2-rodinia-2.1.sm_60.ptx:358 skipping new declaration
GPGPU-Sim PTX: Warning %r1 was declared previous at srad_v2-rodinia-2.1.sm_60.ptx:358 skipping new declaration
GPGPU-Sim PTX: Warning %r2 was declared previous at srad_v2-rodinia-2.1.sm_60.ptx:358 skipping new declaration
GPGPU-Sim PTX: Warning %r3 was declared previous at srad_v2-rodinia-2.1.sm_60.ptx:358 skipping new declaration
GPGPU-Sim PTX: Warning %r4 was declared previous at srad_v2-rodinia-2.1.sm_60.ptx:358 skipping new declaration
GPGPU-Sim PTX: Warning %r5 was declared previous at srad_v2-rodinia-2.1.sm_60.ptx:358 skipping new declaration
GPGPU-Sim PTX: Warning %r6 was declared previous at srad_v2-rodinia-2.1.sm_60.ptx:358 skipping new declaration
GPGPU-Sim PTX: Warning %r7 was declared previous at srad_v2-rodinia-2.1.sm_60.ptx:358 skipping new declaration
GPGPU-Sim PTX: Warning %r8 was declared previous at srad_v2-rodinia-2.1.sm_60.ptx:358 skipping new declaration
GPGPU-Sim PTX: Warning %r9 was declared previous at srad_v2-rodinia-2.1.sm_60.ptx:358 skipping new declaration
GPGPU-Sim PTX: Warning %r10 was declared previous at srad_v2-rodinia-2.1.sm_60.ptx:358 skipping new declaration
GPGPU-Sim PTX: Warning %r11 was declared previous at srad_v2-rodinia-2.1.sm_60.ptx:358 skipping new declaration
GPGPU-Sim PTX: Warning %r12 was declared previous at srad_v2-rodinia-2.1.sm_60.ptx:358 skipping new declaration
GPGPU-Sim PTX: Warning %r13 was declared previous at srad_v2-rodinia-2.1.sm_60.ptx:358 skipping new declaration
GPGPU-Sim PTX: Warning %r14 was declared previous at srad_v2-rodinia-2.1.sm_60.ptx:358 skipping new declaration
GPGPU-Sim PTX: Warning %r15 was declared previous at srad_v2-rodinia-2.1.sm_60.ptx:358 skipping new declaration
GPGPU-Sim PTX: Warning %r16 was declared previous at srad_v2-rodinia-2.1.sm_60.ptx:358 skipping new declaration
GPGPU-Sim PTX: Warning %r17 was declared previous at srad_v2-rodinia-2.1.sm_60.ptx:358 skipping new declaration
GPGPU-Sim PTX: Warning %r18 was declared previous at srad_v2-rodinia-2.1.sm_60.ptx:358 skipping new declaration
GPGPU-Sim PTX: Warning %r19 was declared previous at srad_v2-rodinia-2.1.sm_60.ptx:358 skipping new declaration
GPGPU-Sim PTX: Warning %r20 was declared previous at srad_v2-rodinia-2.1.sm_60.ptx:358 skipping new declaration
GPGPU-Sim PTX: Warning %r21 was declared previous at srad_v2-rodinia-2.1.sm_60.ptx:358 skipping new declaration
GPGPU-Sim PTX: Warning %r22 was declared previous at srad_v2-rodinia-2.1.sm_60.ptx:358 skipping new declaration
GPGPU-Sim PTX: Warning %r23 was declared previous at srad_v2-rodinia-2.1.sm_60.ptx:358 skipping new declaration
GPGPU-Sim PTX: Warning %r24 was declared previous at srad_v2-rodinia-2.1.sm_60.ptx:358 skipping new declaration
GPGPU-Sim PTX: Warning %r25 was declared previous at srad_v2-rodinia-2.1.sm_60.ptx:358 skipping new declaration
GPGPU-Sim PTX: Warning %r26 was declared previous at srad_v2-rodinia-2.1.sm_60.ptx:358 skipping new declaration
GPGPU-Sim PTX: Warning %r27 was declared previous at srad_v2-rodinia-2.1.sm_60.ptx:358 skipping new declaration
GPGPU-Sim PTX: Warning %r28 was declared previous at srad_v2-rodinia-2.1.sm_60.ptx:358 skipping new declaration
GPGPU-Sim PTX: Warning %r29 was declared previous at srad_v2-rodinia-2.1.sm_60.ptx:358 skipping new declaration
GPGPU-Sim PTX: Warning %r30 was declared previous at srad_v2-rodinia-2.1.sm_60.ptx:358 skipping new declaration
GPGPU-Sim PTX: Warning %r31 was declared previous at srad_v2-rodinia-2.1.sm_60.ptx:358 skipping new declaration
GPGPU-Sim PTX: Warning %r32 was declared previous at srad_v2-rodinia-2.1.sm_60.ptx:358 skipping new declaration
GPGPU-Sim PTX: Warning %r33 was declared previous at srad_v2-rodinia-2.1.sm_60.ptx:358 skipping new declaration
GPGPU-Sim PTX: Warning %r34 was declared previous at srad_v2-rodinia-2.1.sm_60.ptx:358 skipping new declaration
GPGPU-Sim PTX: Warning %r35 was declared previous at srad_v2-rodinia-2.1.sm_60.ptx:358 skipping new declaration
GPGPU-Sim PTX: Warning %r36 was declared previous at srad_v2-rodinia-2.1.sm_60.ptx:358 skipping new declaration
GPGPU-Sim PTX: Warning %r37 was declared previous at srad_v2-rodinia-2.1.sm_60.ptx:358 skipping new declaration
GPGPU-Sim PTX: Warning %r38 was declared previous at srad_v2-rodinia-2.1.sm_60.ptx:358 skipping new declaration
GPGPU-Sim PTX: Warning %r39 was declared previous at srad_v2-rodinia-2.1.sm_60.ptx:358 skipping new declaration
GPGPU-Sim PTX: Warning %r40 was declared previous at srad_v2-rodinia-2.1.sm_60.ptx:358 skipping new declaration
GPGPU-Sim PTX: Warning %r41 was declared previous at srad_v2-rodinia-2.1.sm_60.ptx:358 skipping new declaration
GPGPU-Sim PTX: Warning %r42 was declared previous at srad_v2-rodinia-2.1.sm_60.ptx:358 skipping new declaration
GPGPU-Sim PTX: Warning %r43 was declared previous at srad_v2-rodinia-2.1.sm_60.ptx:358 skipping new declaration
GPGPU-Sim PTX: Warning %r44 was declared previous at srad_v2-rodinia-2.1.sm_60.ptx:358 skipping new declaration
GPGPU-Sim PTX: Warning %r45 was declared previous at srad_v2-rodinia-2.1.sm_60.ptx:358 skipping new declaration
GPGPU-Sim PTX: Warning %r46 was declared previous at srad_v2-rodinia-2.1.sm_60.ptx:358 skipping new declaration
GPGPU-Sim PTX: Warning %r47 was declared previous at srad_v2-rodinia-2.1.sm_60.ptx:358 skipping new declaration
GPGPU-Sim PTX: Warning %r48 was declared previous at srad_v2-rodinia-2.1.sm_60.ptx:358 skipping new declaration
GPGPU-Sim PTX: Warning %r49 was declared previous at srad_v2-rodinia-2.1.sm_60.ptx:358 skipping new declaration
GPGPU-Sim PTX: Warning %r50 was declared previous at srad_v2-rodinia-2.1.sm_60.ptx:358 skipping new declaration
GPGPU-Sim PTX: Warning %r51 was declared previous at srad_v2-rodinia-2.1.sm_60.ptx:358 skipping new declaration
GPGPU-Sim PTX: Warning %r52 was declared previous at srad_v2-rodinia-2.1.sm_60.ptx:358 skipping new declaration
GPGPU-Sim PTX: Warning %r53 was declared previous at srad_v2-rodinia-2.1.sm_60.ptx:358 skipping new declaration
GPGPU-Sim PTX: Warning %r54 was declared previous at srad_v2-rodinia-2.1.sm_60.ptx:358 skipping new declaration
GPGPU-Sim PTX: Warning %r55 was declared previous at srad_v2-rodinia-2.1.sm_60.ptx:358 skipping new declaration
GPGPU-Sim PTX: Warning %r56 was declared previous at srad_v2-rodinia-2.1.sm_60.ptx:358 skipping new declaration
GPGPU-Sim PTX: Warning %r57 was declared previous at srad_v2-rodinia-2.1.sm_60.ptx:358 skipping new declaration
GPGPU-Sim PTX: Warning %r58 was declared previous at srad_v2-rodinia-2.1.sm_60.ptx:358 skipping new declaration
GPGPU-Sim PTX: Warning %r59 was declared previous at srad_v2-rodinia-2.1.sm_60.ptx:358 skipping new declaration
GPGPU-Sim PTX: Warning %r60 was declared previous at srad_v2-rodinia-2.1.sm_60.ptx:358 skipping new declaration
GPGPU-Sim PTX: Warning %r61 was declared previous at srad_v2-rodinia-2.1.sm_60.ptx:358 skipping new declaration
GPGPU-Sim PTX: Warning %r62 was declared previous at srad_v2-rodinia-2.1.sm_60.ptx:358 skipping new declaration
GPGPU-Sim PTX: Warning %r63 was declared previous at srad_v2-rodinia-2.1.sm_60.ptx:358 skipping new declaration
GPGPU-Sim PTX: Warning %r64 was declared previous at srad_v2-rodinia-2.1.sm_60.ptx:358 skipping new declaration
GPGPU-Sim PTX: Warning %r65 was declared previous at srad_v2-rodinia-2.1.sm_60.ptx:358 skipping new declaration
GPGPU-Sim PTX: Warning %r66 was declared previous at srad_v2-rodinia-2.1.sm_60.ptx:358 skipping new declaration
GPGPU-Sim PTX: Warning %r67 was declared previous at srad_v2-rodinia-2.1.sm_60.ptx:358 skipping new declaration
GPGPU-Sim PTX: Warning %r68 was declared previous at srad_v2-rodinia-2.1.sm_60.ptx:358 skipping new declaration
GPGPU-Sim PTX: Warning %r69 was declared previous at srad_v2-rodinia-2.1.sm_60.ptx:358 skipping new declaration
GPGPU-Sim PTX: Warning %r70 was declared previous at srad_v2-rodinia-2.1.sm_60.ptx:358 skipping new declaration
GPGPU-Sim PTX: Warning %r71 was declared previous at srad_v2-rodinia-2.1.sm_60.ptx:358 skipping new declaration
GPGPU-Sim PTX: Warning %r72 was declared previous at srad_v2-rodinia-2.1.sm_60.ptx:358 skipping new declaration
GPGPU-Sim PTX: Warning %r73 was declared previous at srad_v2-rodinia-2.1.sm_60.ptx:358 skipping new declaration
GPGPU-Sim PTX: Warning %r74 was declared previous at srad_v2-rodinia-2.1.sm_60.ptx:358 skipping new declaration
GPGPU-Sim PTX: Warning %r75 was declared previous at srad_v2-rodinia-2.1.sm_60.ptx:358 skipping new declaration
GPGPU-Sim PTX: Warning %r76 was declared previous at srad_v2-rodinia-2.1.sm_60.ptx:358 skipping new declaration
GPGPU-Sim PTX: Warning %r77 was declared previous at srad_v2-rodinia-2.1.sm_60.ptx:358 skipping new declaration
GPGPU-Sim PTX: Warning %r78 was declared previous at srad_v2-rodinia-2.1.sm_60.ptx:358 skipping new declaration
GPGPU-Sim PTX: Warning %r79 was declared previous at srad_v2-rodinia-2.1.sm_60.ptx:358 skipping new declaration
GPGPU-Sim PTX: Warning %r80 was declared previous at srad_v2-rodinia-2.1.sm_60.ptx:358 skipping new declaration
GPGPU-Sim PTX: Warning %r81 was declared previous at srad_v2-rodinia-2.1.sm_60.ptx:358 skipping new declaration
GPGPU-Sim PTX: Warning %r82 was declared previous at srad_v2-rodinia-2.1.sm_60.ptx:358 skipping new declaration
GPGPU-Sim PTX: Warning %fd0 was declared previous at srad_v2-rodinia-2.1.sm_60.ptx:359 skipping new declaration
GPGPU-Sim PTX: Warning %fd1 was declared previous at srad_v2-rodinia-2.1.sm_60.ptx:359 skipping new declaration
GPGPU-Sim PTX: Warning %fd2 was declared previous at srad_v2-rodinia-2.1.sm_60.ptx:359 skipping new declaration
GPGPU-Sim PTX: Warning %fd3 was declared previous at srad_v2-rodinia-2.1.sm_60.ptx:359 skipping new declaration
GPGPU-Sim PTX: Warning %fd4 was declared previous at srad_v2-rodinia-2.1.sm_60.ptx:359 skipping new declaration
GPGPU-Sim PTX: Warning %fd5 was declared previous at srad_v2-rodinia-2.1.sm_60.ptx:359 skipping new declaration
GPGPU-Sim PTX: Warning %rd0 was declared previous at srad_v2-rodinia-2.1.sm_60.ptx:360 skipping new declaration
GPGPU-Sim PTX: Warning %rd1 was declared previous at srad_v2-rodinia-2.1.sm_60.ptx:360 skipping new declaration
GPGPU-Sim PTX: Warning %rd2 was declared previous at srad_v2-rodinia-2.1.sm_60.ptx:360 skipping new declaration
GPGPU-Sim PTX: Warning %rd3 was declared previous at srad_v2-rodinia-2.1.sm_60.ptx:360 skipping new declaration
GPGPU-Sim PTX: Warning %rd4 was declared previous at srad_v2-rodinia-2.1.sm_60.ptx:360 skipping new declaration
GPGPU-Sim PTX: Warning %rd5 was declared previous at srad_v2-rodinia-2.1.sm_60.ptx:360 skipping new declaration
GPGPU-Sim PTX: Warning %rd6 was declared previous at srad_v2-rodinia-2.1.sm_60.ptx:360 skipping new declaration
GPGPU-Sim PTX: Warning %rd7 was declared previous at srad_v2-rodinia-2.1.sm_60.ptx:360 skipping new declaration
GPGPU-Sim PTX: Warning %rd8 was declared previous at srad_v2-rodinia-2.1.sm_60.ptx:360 skipping new declaration
GPGPU-Sim PTX: Warning %rd9 was declared previous at srad_v2-rodinia-2.1.sm_60.ptx:360 skipping new declaration
GPGPU-Sim PTX: Warning %rd10 was declared previous at srad_v2-rodinia-2.1.sm_60.ptx:360 skipping new declaration
GPGPU-Sim PTX: Warning %rd11 was declared previous at srad_v2-rodinia-2.1.sm_60.ptx:360 skipping new declaration
GPGPU-Sim PTX: Warning %rd12 was declared previous at srad_v2-rodinia-2.1.sm_60.ptx:360 skipping new declaration
GPGPU-Sim PTX: Warning %rd13 was declared previous at srad_v2-rodinia-2.1.sm_60.ptx:360 skipping new declaration
GPGPU-Sim PTX: Warning %rd14 was declared previous at srad_v2-rodinia-2.1.sm_60.ptx:360 skipping new declaration
GPGPU-Sim PTX: Warning %rd15 was declared previous at srad_v2-rodinia-2.1.sm_60.ptx:360 skipping new declaration
GPGPU-Sim PTX: Warning %rd16 was declared previous at srad_v2-rodinia-2.1.sm_60.ptx:360 skipping new declaration
GPGPU-Sim PTX: Warning %rd17 was declared previous at srad_v2-rodinia-2.1.sm_60.ptx:360 skipping new declaration
GPGPU-Sim PTX: Warning %rd18 was declared previous at srad_v2-rodinia-2.1.sm_60.ptx:360 skipping new declaration
GPGPU-Sim PTX: Warning %rd19 was declared previous at srad_v2-rodinia-2.1.sm_60.ptx:360 skipping new declaration
GPGPU-Sim PTX: Warning %rd20 was declared previous at srad_v2-rodinia-2.1.sm_60.ptx:360 skipping new declaration
GPGPU-Sim PTX: Warning %rd21 was declared previous at srad_v2-rodinia-2.1.sm_60.ptx:360 skipping new declaration
GPGPU-Sim PTX: Warning %rd22 was declared previous at srad_v2-rodinia-2.1.sm_60.ptx:360 skipping new declaration
GPGPU-Sim PTX: Warning %rd23 was declared previous at srad_v2-rodinia-2.1.sm_60.ptx:360 skipping new declaration
GPGPU-Sim PTX: Warning %rd24 was declared previous at srad_v2-rodinia-2.1.sm_60.ptx:360 skipping new declaration
GPGPU-Sim PTX: Warning %rd25 was declared previous at srad_v2-rodinia-2.1.sm_60.ptx:360 skipping new declaration
GPGPU-Sim PTX: Warning %rd26 was declared previous at srad_v2-rodinia-2.1.sm_60.ptx:360 skipping new declaration
GPGPU-Sim PTX: Warning %rd27 was declared previous at srad_v2-rodinia-2.1.sm_60.ptx:360 skipping new declaration
GPGPU-Sim PTX: Warning %rd28 was declared previous at srad_v2-rodinia-2.1.sm_60.ptx:360 skipping new declaration
GPGPU-Sim PTX: Warning %rd29 was declared previous at srad_v2-rodinia-2.1.sm_60.ptx:360 skipping new declaration
GPGPU-Sim PTX: Warning _ZZ11srad_cuda_2PfS_S_S_S_S_iiffE7south_c was declared previous at srad_v2-rodinia-2.1.sm_60.ptx:362 skipping new declaration
GPGPU-Sim PTX: Warning _ZZ11srad_cuda_2PfS_S_S_S_S_iiffE6east_c was declared previous at srad_v2-rodinia-2.1.sm_60.ptx:364 skipping new declaration
GPGPU-Sim PTX: Warning _ZZ11srad_cuda_2PfS_S_S_S_S_iiffE11c_cuda_temp was declared previous at srad_v2-rodinia-2.1.sm_60.ptx:366 skipping new declaration
GPGPU-Sim PTX: Warning _ZZ11srad_cuda_2PfS_S_S_S_S_iiffE13c_cuda_result was declared previous at srad_v2-rodinia-2.1.sm_60.ptx:368 skipping new declaration
GPGPU-Sim PTX: Warning _ZZ11srad_cuda_2PfS_S_S_S_S_iiffE4temp was declared previous at srad_v2-rodinia-2.1.sm_60.ptx:370 skipping new declaration
GPGPU-Sim PTX: instruction assembly for function '_Z11srad_cuda_2PfS_S_S_S_S_iiff'...   done.
GPGPU-Sim PTX: finished parsing EMBEDDED .ptx file srad_v2-rodinia-2.2.sm_62.ptx
GPGPU-Sim PTX: Parsing srad_v2-rodinia-2.3.sm_70.ptx
GPGPU-Sim PTX: Warning %p0 was declared previous at srad_v2-rodinia-2.1.sm_60.ptx:38 skipping new declaration
GPGPU-Sim PTX: Warning %p1 was declared previous at srad_v2-rodinia-2.1.sm_60.ptx:38 skipping new declaration
GPGPU-Sim PTX: Warning %p2 was declared previous at srad_v2-rodinia-2.1.sm_60.ptx:38 skipping new declaration
GPGPU-Sim PTX: Warning %p3 was declared previous at srad_v2-rodinia-2.1.sm_60.ptx:38 skipping new declaration
GPGPU-Sim PTX: Warning %p4 was declared previous at srad_v2-rodinia-2.1.sm_60.ptx:38 skipping new declaration
GPGPU-Sim PTX: Warning %p5 was declared previous at srad_v2-rodinia-2.1.sm_60.ptx:38 skipping new declaration
GPGPU-Sim PTX: Warning %p6 was declared previous at srad_v2-rodinia-2.1.sm_60.ptx:38 skipping new declaration
GPGPU-Sim PTX: Warning %p7 was declared previous at srad_v2-rodinia-2.1.sm_60.ptx:38 skipping new declaration
GPGPU-Sim PTX: Warning %p8 was declared previous at srad_v2-rodinia-2.1.sm_60.ptx:38 skipping new declaration
GPGPU-Sim PTX: Warning %p9 was declared previous at srad_v2-rodinia-2.1.sm_60.ptx:38 skipping new declaration
[...]
1.06588 1.92805 1.67782 1.00916 1.77318 1.15601 1.44459 2.30738 2.41130 1.30092 1.75759 1.44978 1.76980 2.09661 1.29581 1.17301 2.23891 2.42375 1.25806 1.66435 2.58976 2.06190 1.80433 2.55423 2.39318 2.29423 1.90515 1.23146 1.71684 1.85440 2.07928 1.82995 1.31531 1.28340 1.84671 2.33228 1.48363 2.66773 1.97973 1.31608 1.27672 1.28005 1.90803 2.25955 2.68378 2.47244 2.65047 2.21049 2.20454 1.22668 1.35344 2.10031 2.52929 2.44205 1.97355 2.22678 2.06109 1.38319 1.00880 1.30176 2.56499 2.09757 2.38217 1.24114 2.69203 1.61836 1.06489 1.46930 1.58827 2.10820 1.93371 2.02778 2.69861 1.35733 1.68558 2.66435 1.23457 1.64352 2.16663 1.00124 2.01607 1.07877 2.10291 1.87590 2.63442 1.52677 1.53671 1.99750 2.11182 1.55023 2.60028 1.99273 1.19624 2.27875 2.47325 1.18469 1.35668 2.63374 1.74066 2.15477 2.04263 1.23826 1.60741 2.02785 1.68072 2.70941 1.98761 2.07497 1.63816 1.58424 2.07754 1.21498 1.70904 1.60723 2.27918 1.65631 2.45387 1.28848 1.21712 1.90640 1.99744 1.16428 1.39755 2.38942 2.65312 1.27157 1.04136 1.32416 
1.23202 1.81266 1.04966 2.51657 2.24455 1.68723 1.87737 1.38781 1.68173 1.37273 1.05937 1.01349 2.17475 2.20089 1.23137 1.36730 1.30131 1.03246 2.26468 1.17473 1.33030 1.01402 2.23950 2.65719 1.18060 1.15140 2.33572 1.15230 1.46408 2.43233 1.52583 1.80379 1.62198 1.60160 1.66994 1.33931 2.70228 1.15333 1.85871 1.67183 1.58322 1.96907 1.69438 1.26665 1.59427 2.08640 1.73189 2.07464 2.15411 1.44289 2.43715 1.05420 1.46311 2.00789 1.03050 1.72736 2.31187 2.40696 1.99044 1.24519 2.15376 1.11728 2.24605 1.28514 1.78944 1.37983 1.72120 1.77891 1.59140 1.17692 1.09408 2.51954 2.31744 1.85378 1.17404 1.35918 1.42286 2.03331 1.03735 1.12755 1.07930 2.52818 1.18865 1.57914 1.86746 1.22491 1.00348 1.58826 1.08463 1.99737 1.97768 2.33603 2.23162 1.63411 1.10442 1.46907 2.25479 1.90092 2.61334 1.32005 2.23723 1.05184 1.22354 1.90732 1.94989 1.43648 2.59239 1.02065 1.07451 2.68922 1.15083 1.15971 2.50114 1.36794 1.83135 1.71829 1.67560 1.83772 1.00397 1.81740 1.35033 1.98554 1.56183 1.10858 1.19361 1.72492 1.62858 2.69134 
1.20625 1.56571 1.30697 2.69865 1.64688 1.59912 1.89355 1.18135 2.29711 1.80585 1.20574 2.46826 1.78654 1.38760 1.05305 1.64383 1.89815 1.92850 1.03910 1.17006 1.30378 1.04323 2.12646 1.76053 2.07137 1.22179 1.95169 2.47242 2.10750 1.16930 2.44791 2.54216 1.83078 1.17697 2.52380 1.10919 1.88213 1.75807 1.31033 1.59051 1.16795 1.57992 1.44422 2.08659 2.19229 1.52083 1.26182 1.53085 1.07896 1.31116 1.79119 1.40672 1.36785 1.40121 2.47658 1.04232 1.71200 1.77815 2.57705 1.32732 2.07919 2.32073 1.24132 1.40035 1.00484 1.15251 1.55324 1.89123 2.02619 2.03526 1.10659 2.36649 1.18294 1.59816 1.81655 2.59334 2.43053 2.29216 1.46049 2.62245 1.10563 2.61601 1.35712 1.51233 1.34850 1.23645 1.57633 2.30862 2.19859 1.49443 1.12728 1.68168 1.27587 1.39932 2.35494 1.28204 1.61272 1.34563 2.42465 1.20212 1.00752 2.68310 1.04654 1.19183 1.57747 1.90109 1.13705 1.41049 1.60308 1.66065 1.36076 1.77240 1.59817 1.84672 2.68045 2.15513 2.28338 1.55439 1.83033 1.84683 2.32292 2.06330 1.14255 1.09030 1.06215 2.69065 1.39782 1.71295 
1.33195 1.24682 2.05917 1.34196 1.23068 2.15500 1.59938 1.94137 1.50715 1.81857 1.00735 2.41608 1.11099 1.37077 1.57536 1.77556 2.53142 1.55343 1.40771 2.12641 2.41463 2.57658 1.44471 2.06344 1.95574 1.65066 2.24977 2.07729 1.63388 1.15690 1.30902 2.17624 1.44244 2.69550 1.07436 1.77519 2.13694 1.71831 1.26782 1.18483 1.14957 1.27715 1.05311 1.27717 1.75067 1.65902 2.26769 1.63033 2.57717 1.17436 1.27535 2.28929 1.11314 1.84251 1.73779 2.17702 1.11885 1.43827 1.66366 1.82807 1.66394 2.17777 1.46354 2.40014 2.15952 1.57238 1.56742 1.69768 2.70184 1.98722 2.01146 1.14262 2.53797 2.11828 1.45932 1.63455 1.29283 1.21742 2.66485 1.22571 1.42969 1.25028 1.03227 1.59145 2.30365 1.79387 1.27456 2.57744 2.58008 2.12043 1.73336 1.57934 1.69880 2.53684 1.39450 1.34960 1.46742 2.18577 2.29118 1.45855 1.59792 1.69542 1.66657 1.49192 1.32119 2.43206 2.43862 1.70807 1.08923 2.39069 2.09361 1.55727 1.09960 2.16117 2.47831 2.53309 1.42622 1.16204 2.40184 1.35371 2.46403 1.53157 2.13797 1.53990 1.42934 1.09679 2.07825 2.09745 
2.39734 1.75171 1.12543 1.40925 1.09256 1.87561 2.10250 1.44348 1.67812 1.88619 2.46557 1.82786 1.65888 1.89897 1.04716 1.82410 1.50978 2.59519 1.69983 2.15328 1.10942 1.50195 1.07234 1.00565 2.30034 2.29264 1.54861 1.20958 2.51456 1.18398 2.53703 2.21767 2.07400 1.05039 1.14972 2.26597 1.97012 2.41728 1.20329 1.21624 1.67733 1.09142 2.22313 1.02362 2.07258 2.32797 1.86719 1.15115 2.22255 1.16761 2.47874 2.46574 1.75369 2.65806 2.47968 1.48405 2.24184 1.41267 1.79508 2.07382 1.67258 1.67539 1.69189 1.27615 1.75981 1.94520 1.06380 1.27545 1.72980 1.28006 1.55126 1.06739 1.39709 1.26869 1.09260 1.06522 1.08652 2.04009 1.22623 2.41485 2.38203 1.11817 2.19051 1.53676 1.09340 1.99823 2.28063 2.45122 1.03847 1.50607 1.87008 1.73692 2.52325 1.16396 2.21657 1.63355 2.26413 2.35799 2.08352 1.44080 1.11040 1.18902 1.53789 1.55132 1.50850 1.68030 1.65251 1.63901 1.26108 2.02635 1.45606 1.10508 2.26581 1.17336 1.69825 2.47743 2.34464 1.42482 2.23403 2.43483 2.14588 1.53693 1.55581 1.99192 1.78892 1.26865 1.19704 1.49004 
1.10050 2.49405 2.14686 1.22199 1.09094 1.21460 1.89571 1.64567 2.04090 1.15245 2.69728 2.57373 2.33527 1.44481 1.04632 1.94655 1.69528 1.77691 1.77407 1.46225 2.53178 1.45803 1.30977 1.99865 2.24089 2.03775 1.46458 1.47474 2.58520 1.75317 2.19744 1.04662 1.60855 1.73550 1.27897 1.75482 2.10794 2.42456 1.06239 1.58265 1.02792 1.05418 1.49849 2.40047 1.52309 1.56790 1.71896 2.58206 1.02492 1.12187 1.38897 2.59486 1.63572 1.81924 1.90791 1.34845 1.36379 1.02796 1.98862 1.29702 1.80219 1.60758 1.35749 1.06645 1.02637 1.73619 1.87143 2.16353 1.54858 1.98818 1.25966 1.59182 2.09589 1.88758 1.40570 1.17436 1.08875 2.41635 1.11550 1.11588 2.71084 1.54940 1.06522 1.63125 1.03695 2.03233 2.19966 1.41418 2.08915 1.60921 1.83422 1.38508 2.58694 2.48993 1.47712 2.65515 1.59034 1.01694 2.11328 2.46277 2.02185 2.66201 1.44219 1.55892 1.84851 2.02729 1.83073 2.01257 1.80211 2.04218 2.24579 1.79718 1.16403 2.39225 1.07849 1.20704 1.78857 2.37231 1.70697 1.37462 1.40439 1.15182 1.90396 1.33653 1.05506 1.03461 1.30549 1.67790 
1.05213 1.01493 1.52018 2.12726 2.70175 2.19238 1.21997 1.83727 1.63507 2.23343 1.36028 1.08398 1.67793 1.12384 1.94811 1.95316 2.68850 2.10102 2.35754 1.76897 1.83361 1.48044 2.43166 2.57511 1.70520 1.70320 1.26614 1.79908 1.76215 1.65293 1.11051 1.85402 1.67761 1.68816 1.45091 1.66741 1.36156 1.77006 1.12699 2.22624 1.45434 1.53303 2.41321 2.44028 1.72288 1.72948 1.75341 1.70400 1.33675 1.52071 1.10891 2.45108 2.25133 2.69650 2.32198 1.41227 1.68955 1.08155 2.54079 1.09526 1.78773 1.03800 2.03064 1.10331 1.75231 1.08387 1.83968 2.38587 1.91852 2.07331 1.95400 1.02645 1.16928 1.73470 2.50483 2.01454 1.10369 1.61572 1.26285 1.47536 2.45705 1.40039 1.33034 2.03497 1.38917 1.13638 1.05726 2.34706 1.22905 2.68628 2.57066 2.19721 1.02578 1.92036 2.42421 1.79748 2.08142 1.64066 1.57767 1.46903 1.25137 1.13408 1.50788 1.46321 1.96730 1.38947 1.08439 2.17128 2.24500 1.36943 1.17847 2.02925 1.91773 1.56776 1.51914 2.66404 1.78158 1.60613 2.30023 2.18966 1.58722 2.17531 1.76992 1.62813 1.53677 1.57845 1.07661 1.17672 
2.58969 1.69854 1.72863 1.19218 1.92628 2.60656 1.74441 1.39411 1.33237 1.89163 1.11357 1.10039 2.59044 1.31232 2.23296 1.82754 2.05741 1.24791 1.79107 1.34844 2.00431 1.51562 1.08621 1.17033 1.21287 1.92251 1.90545 1.86390 1.11636 2.05144 2.19328 1.06355 1.28185 1.39477 1.26795 2.46921 1.33744 2.21182 1.26637 1.78197 1.53918 1.41020 1.96085 1.46680 1.85063 1.61076 2.68063 1.40070 2.01009 1.76626 1.88876 1.48213 2.67697 2.05159 1.73458 1.19444 1.45100 1.21590 2.22632 1.61984 2.49433 1.79634 1.72279 1.17625 2.50548 2.18440 1.06847 1.23274 1.77741 1.35308 2.19670 1.00643 1.90811 1.58461 1.47623 1.29906 2.55243 1.45578 1.81958 1.88744 2.57128 1.26431 1.02912 2.53221 2.59385 1.78508 1.11268 1.38458 2.17048 2.47718 2.24279 1.99166 1.63701 1.42143 2.34269 1.50885 1.14226 2.50309 1.86003 2.03025 1.24596 1.50313 2.04331 2.37744 2.38187 1.10966 1.13617 2.23654 1.61542 2.06735 1.55294 1.52806 2.61378 1.59816 1.42346 2.49413 1.04951 1.58385 1.27041 2.27793 1.44337 1.04818 1.66902 2.36281 1.48992 1.43840 1.31154 1.70187 
1.32453 2.43950 1.27111 1.65032 1.34897 2.59726 1.44339 1.18202 1.06026 1.63993 2.64364 1.71277 1.24723 1.51030 2.61722 1.19928 2.41371 1.37054 1.10039 2.53320 2.17074 1.39794 2.12283 1.15263 1.46530 1.30341 1.00190 2.18317 1.87482 1.31404 1.36684 2.48326 1.17928 1.73740 1.50764 1.59081 1.66005 2.17610 1.88037 1.76008 1.31284 1.82874 1.10901 1.63741 1.01606 1.06778 1.96371 2.45247 1.46344 2.16085 2.28549 1.16866 1.11127 1.78484 1.34703 1.62834 2.32637 1.34959 1.30779 1.60452 1.77342 1.78754 1.46580 2.09134 1.14251 2.20989 1.22391 1.89662 1.76911 2.30140 1.22806 2.32256 1.54828 1.36193 1.39904 1.57314 1.45425 1.01068 1.41931 2.12820 2.18392 1.19334 2.48714 2.42692 2.12991 1.23249 1.45380 1.82283 1.66336 1.90127 1.07596 1.08518 1.25027 1.57714 2.26948 1.42845 1.28218 1.02183 2.70923 2.26831 2.35165 1.22397 1.93809 1.33945 1.66697 2.71146 2.10715 2.42419 1.00814 1.10022 1.89795 2.20170 1.31293 1.73656 1.96571 1.02874 2.14029 1.05131 1.87523 1.30967 1.99883 2.01767 1.42123 2.49908 1.17065 1.18658 1.31326 1.50098 
1.21249 1.30889 1.25252 1.04895 1.60204 2.42750 1.40502 2.67055 2.42141 1.08914 2.38162 2.44112 1.19829 1.66288 1.97721 1.57327 1.06233 1.42981 1.61849 2.27369 1.50318 1.11652 1.09547 1.10533 2.25278 1.55691 1.01619 2.63723 1.84740 1.33452 1.45623 2.23995 1.74674 1.82395 2.34960 1.02945 1.62884 1.21446 1.01138 1.45095 1.32271 2.40871 1.30301 1.58499 1.47351 2.57634 2.49362 1.56535 1.35515 1.48472 1.30932 2.03704 1.65773 1.43432 2.25160 1.37385 2.23311 2.28806 1.33288 1.51767 1.12331 1.94098 1.25061 1.96213 1.30238 1.08099 2.01992 2.12138 1.31282 2.04290 1.13234 1.73648 1.81024 1.47545 1.01252 2.66740 1.39841 2.52484 1.53604 1.89505 1.37906 2.01118 1.42012 2.28612 1.06121 1.17631 1.15543 2.36981 2.69146 1.54005 1.32311 1.11223 1.09966 1.65469 2.18233 1.43218 1.78870 1.62166 1.11769 2.34823 1.21874 1.26561 1.50008 2.20621 1.86735 1.51886 2.16491 2.61131 1.41077 1.22334 1.82048 1.94555 2.46036 2.58530 1.63624 2.61096 1.11876 1.89055 2.27624 1.10772 1.07109 1.10795 1.23204 1.17784 1.83331 2.68871 1.68689 1.20636 
1.60402 1.88542 1.04213 1.95488 2.38621 1.56328 1.58661 1.63923 2.37441 1.26362 1.57472 1.23231 1.54584 1.05462 2.39752 1.39916 1.00303 1.44316 1.34392 1.12215 1.00371 1.12538 1.24303 1.07506 1.24686 1.53146 1.26625 2.28588 1.51480 2.13603 1.01446 2.42976 1.48157 1.05720 1.74738 1.30058 1.65270 1.01992 2.13195 1.44363 1.28879 1.23506 1.77900 1.99226 1.30251 1.56908 1.02546 1.30645 2.26442 1.37814 1.46603 2.27282 1.55094 1.82232 2.44342 1.93380 1.02668 1.13822 1.62619 1.55521 2.43126 1.64970 1.39014 1.32513 1.74407 2.42910 1.72344 1.06038 2.47748 1.35169 1.53081 1.17462 1.66942 1.00185 2.34014 2.17444 1.57198 2.39973 1.04507 1.30952 1.21664 1.53211 1.09492 1.88693 1.02712 2.67534 1.34237 1.05452 1.12024 2.18294 1.64000 1.00195 1.32481 2.27983 1.32772 2.31055 2.03729 2.28824 2.45008 1.85682 1.13785 1.37977 2.18105 1.89955 1.38232 1.87764 1.51951 2.17299 1.65760 1.58800 1.04682 2.01670 2.43299 1.14618 1.39992 2.49897 1.12808 1.87921 2.63522 1.26371 1.50911 1.58989 1.26618 1.99929 1.33345 1.68113 1.69940 2.71662 
1.41517 1.53173 1.85568 1.61025 2.11343 1.48893 1.12525 1.07474 1.02847 1.70983 2.33540 1.70480 2.71520 2.44475 1.26480 2.43023 1.03085 1.77061 2.23416 1.16287 1.22406 2.16590 1.46954 1.84725 1.26681 1.86069 1.35864 1.68922 1.15075 2.30888 1.68819 1.62851 1.30104 1.15247 2.62231 1.01154 1.71595 1.08552 1.08714 1.76481 1.85606 2.53891 1.10682 1.85395 2.28343 1.39990 1.65749 2.35387 2.47868 1.36230 1.00698 1.11617 1.08546 1.47979 2.06183 1.37508 1.01293 1.03054 2.32281 1.16563 2.37940 1.44258 1.89825 1.13884 1.66253 1.83123 1.15198 1.04949 1.98784 1.25237 1.85216 1.35731 1.16973 2.05001 2.51638 2.67099 1.05574 1.53439 2.31292 2.61685 2.09029 2.32906 1.07452 2.26894 1.26791 2.21548 1.14777 1.28431 2.28314 2.66605 1.49703 1.99850 1.41486 1.04542 2.27597 2.35225 1.91439 2.62187 2.46868 1.39997 1.20795 1.68208 1.90018 1.41298 1.26855 1.75905 1.38840 1.33927 2.69906 1.18135 1.28929 2.07551 1.01220 1.38537 1.73242 1.28337 1.12912 1.98842 1.64824 2.57793 1.95022 2.46747 1.89531 1.01508 2.57953 1.58691 2.38773 1.81668 
1.53063 2.16848 2.54329 1.84893 1.34186 1.77786 2.61249 1.70223 1.15048 1.33436 2.27974 1.14235 1.57635 1.08129 2.37096 1.59558 1.49799 1.51106 2.04772 1.69140 1.10534 1.24164 1.60407 2.15566 1.12708 1.11844 2.18817 1.06955 1.77486 1.92208 1.94303 2.71666 1.53332 1.81795 1.84782 2.05751 1.18901 1.77591 1.28844 1.36793 2.36970 1.08057 1.56265 1.37420 1.16841 1.36299 2.19265 1.75027 2.05956 1.65175 1.08908 2.27652 2.05089 1.74696 1.80533 2.31152 1.95386 1.45326 2.47229 1.27574 1.02759 1.76719 1.27498 1.57563 1.18187 2.35594 1.19262 1.40525 1.53918 1.53662 1.92229 1.34180 1.66043 1.10506 1.84391 1.94007 1.50619 1.48736 1.24919 1.14119 2.45675 1.36047 2.59795 1.85357 2.37668 1.72541 1.57620 1.70832 2.50748 1.43356 2.17938 2.57667 2.53338 1.02221 1.49355 1.10148 2.40827 1.78124 1.54786 1.36364 1.00692 1.09460 1.82974 1.67192 1.20960 1.24118 1.19327 1.82188 1.84609 1.49063 2.07912 1.66847 2.02795 1.98708 1.13772 1.77310 1.26128 1.79327 1.11431 1.16347 2.57077 2.42851 1.10286 2.39591 2.48246 1.64718 2.63904 2.19934 
1.07937 1.50274 1.10331 1.08683 1.64490 2.01878 1.81710 1.98967 2.50568 2.16829 1.33354 1.70170 1.18903 1.01998 1.04450 2.41129 2.02677 1.18834 1.57285 2.55634 2.13102 1.75264 1.09416 2.01537 1.56581 1.20670 1.77636 1.42997 1.98766 1.72458 1.15697 2.14541 2.59159 1.27651 2.33170 1.56824 2.57699 1.55868 1.14788 2.37544 1.24331 1.53075 1.48708 1.47833 1.56133 1.55325 1.31138 1.16414 1.84579 2.06260 1.09479 1.44702 1.32988 1.19787 1.07284 2.08234 1.44548 1.90576 1.09542 1.05696 1.20908 1.26738 2.26761 1.15273 1.61782 1.94513 1.80776 1.53372 1.11535 2.07509 1.34029 1.38673 1.16855 1.99311 2.05005 1.82449 1.13888 2.68839 2.12397 2.10214 2.03991 2.32529 1.11903 2.71284 1.02469 1.20055 2.07817 1.48117 2.28795 2.27648 1.56553 1.01767 1.06139 1.30598 1.17310 1.71714 2.54030 2.12069 2.63361 1.04232 1.61890 1.29854 1.44541 1.89177 2.58813 1.09009 1.26974 1.08435 1.07810 2.69688 2.27946 2.19923 2.30699 2.55078 2.19483 2.36395 1.12657 1.67798 1.28809 2.57754 1.40526 2.01655 2.62309 1.49153 2.63357 1.13202 2.56116 2.46114 
2.40067 2.48139 2.56529 1.42974 1.18537 1.36406 2.70474 1.12862 1.48695 1.26342 1.22382 1.60309 1.25347 1.02625 1.29698 1.06381 2.61775 1.04722 2.51479 1.08491 1.75722 1.19167 1.02873 2.46934 2.40306 2.69846 1.35494 2.32817 1.12377 1.27662 2.10793 2.69781 1.16536 1.98930 1.41898 1.38139 2.71353 1.41191 1.55906 1.48435 1.78383 1.90801 2.37955 2.23597 1.95810 1.13536 2.37866 1.88568 1.18897 2.20059 2.04579 2.08928 2.62238 2.10457 1.89794 2.31827 2.08923 2.57159 1.98557 2.34782 1.20772 1.53974 2.33014 1.40744 1.12682 1.21636 1.94421 1.12485 1.71739 1.11509 1.66967 1.12701 2.12761 1.46160 2.51996 1.53261 1.65944 2.20512 1.06318 1.97303 1.78516 2.17504 1.51647 1.72217 1.68398 1.05882 1.46875 1.29428 1.00168 1.07285 1.11789 1.20976 1.65191 2.60483 1.70265 1.86140 1.16560 1.21780 2.09378 2.00178 1.35796 1.28608 2.25603 1.06288 1.87974 2.09144 1.62898 1.14753 1.69661 1.73189 2.26412 1.11420 1.38578 1.26310 1.91885 2.33361 1.33740 1.03680 1.11112 1.33965 1.11232 1.24211 1.62066 1.83746 1.19027 1.01513 1.25824 1.38738 
1.23623 2.63447 1.02168 1.67875 1.24643 2.30495 1.78431 2.34296 1.77342 1.06928 2.68863 1.10687 1.85188 2.23942 1.23328 2.56628 1.04059 2.36648 2.20312 1.39169 2.45356 2.44794 1.86438 1.00400 1.11858 1.11155 1.84481 1.33141 1.12837 2.32120 1.84717 1.39493 2.24964 1.88723 2.34173 1.03154 1.60026 1.53713 2.41685 1.04402 1.64362 2.39048 1.15560 1.11975 1.96936 1.42518 1.05713 2.04930 1.24073 2.32900 1.04918 1.11990 2.09737 1.95608 1.12438 2.34608 2.17429 2.07427 1.14911 2.45341 1.77127 2.12260 1.25900 1.46589 1.47366 1.08460 1.51212 2.35825 1.66717 1.34444 2.46206 1.00806 1.18232 1.04667 1.12878 2.32841 1.49169 1.19327 1.75537 1.85079 1.02238 1.84171 2.07270 2.14431 1.32530 2.33051 1.85070 1.06007 1.77836 2.12665 2.60078 1.15880 1.66062 1.20458 1.69868 2.44720 1.30648 2.56862 2.12307 2.17813 1.27042 1.92295 2.19570 1.50204 2.01270 2.47845 1.28660 1.10450 1.08799 2.25847 2.04419 1.11234 1.53017 1.55871 2.38520 2.02793 1.33635 1.62392 2.14975 2.37652 1.27048 2.05683 1.01311 2.10979 2.47761 1.72096 1.89939 1.19081 
1.62620 1.48349 2.59374 2.06596 1.04944 2.09510 1.14158 2.11221 1.91025 1.46876 2.33293 2.07833 1.22031 1.75441 2.31181 1.86729 1.00601 2.02853 1.39306 1.34438 1.21186 1.10170 1.17536 1.53964 2.26601 1.19077 1.19499 2.06538 2.04926 2.26975 2.45948 1.22596 1.23870 2.34679 2.53279 1.29995 1.80877 1.06368 1.01011 1.27110 1.56229 2.35653 2.64177 1.90648 1.52093 2.24673 1.30963 1.53007 1.67663 1.82439 2.05699 2.03184 2.00993 2.41771 1.15084 1.67551 1.05910 1.37525 1.27307 2.17038 1.14833 1.15186 2.66081 1.42244 2.70319 2.47924 1.84909 1.79873 2.63711 1.86779 2.28637 1.51564 1.61922 2.22201 1.06300 2.46272 1.83655 1.39214 1.38621 1.13278 2.53980 1.04899 2.30164 1.87796 2.53614 2.64883 1.15755 2.68603 1.34011 1.47365 2.14463 1.53888 1.69744 2.09928 2.18896 1.68801 1.91467 1.48903 1.11698 1.85750 1.02314 2.55384 1.03569 1.65670 2.08759 1.10094 1.50094 1.41044 1.53266 2.08063 1.59772 1.43203 2.18255 1.35283 2.68929 2.03630 1.31827 1.14521 2.01214 1.76662 1.68763 1.58751 1.00013 1.05384 1.22601 2.18924 1.77891 2.34740 
1.19923 1.98701 1.60406 1.22699 1.86681 1.66132 2.03275 1.43367 1.82902 1.12241 2.02210 1.03126 2.33533 1.18853 1.47680 1.87507 1.60788 1.46105 1.40464 2.11961 1.67320 1.03975 1.37755 1.03879 1.65062 1.37772 1.09473 2.02367 1.10958 1.94742 1.74756 1.33065 1.42352 1.03124 1.63269 2.65744 1.71322 1.22093 1.40158 1.15275 1.37039 1.04263 1.18879 1.17733 1.23919 1.75560 2.20758 1.99247 2.56501 1.14074 1.55365 1.57886 1.18609 2.14023 1.64011 1.95778 1.08475 1.79547 1.45750 1.20362 1.28630 2.54707 1.60159 1.83108 2.62663 2.61489 1.79010 1.65545 1.17449 2.50897 1.90832 1.60951 2.61592 2.26858 1.89493 1.19253 1.46516 1.53891 2.37607 1.38255 1.75550 1.35806 2.18284 2.08219 1.06927 1.31704 1.49965 1.15988 2.36471 2.18574 1.39606 1.11899 2.04806 2.23591 2.04895 1.97901 2.15086 1.34932 1.20523 2.52617 1.24542 2.29996 1.49577 1.19852 1.91947 1.04270 1.42926 1.03460 1.60463 1.24933 1.43038 1.03629 1.69667 1.14863 2.15775 1.81420 1.51279 1.19041 2.10425 1.31601 2.60192 1.08070 1.47260 1.96039 2.41635 1.11000 1.42724 1.91196 
1.49774 1.72015 1.77684 1.86531 1.45544 2.65773 2.23561 1.02773 1.01948 1.17547 1.06329 1.63589 1.46856 1.52091 1.69526 2.49165 1.74695 1.34568 1.66294 2.64277 1.60192 1.28730 1.27946 1.53334 1.39119 1.88413 1.10583 1.23667 2.09138 1.57828 2.36447 1.15233 2.71488 1.54556 2.14945 1.45362 1.51114 1.76778 1.49393 1.54057 2.07799 1.58847 2.52021 1.12264 2.41592 1.57173 1.02904 1.55264 2.11505 1.71124 1.50951 1.24643 2.20288 1.93135 1.91120 1.12742 1.33868 2.11346 1.39424 1.02995 1.22711 1.21277 1.18684 1.22558 1.87441 2.55106 1.78152 1.04201 1.65903 2.66146 1.60530 1.26824 1.55527 1.48833 1.42378 1.38228 2.33925 1.46512 2.14617 1.82013 2.50717 1.19180 2.26866 2.03180 2.30179 1.59508 2.29068 1.13357 1.24017 1.17492 1.16752 1.52183 1.42490 1.38566 1.86513 2.67085 1.30041 1.22238 1.02383 2.15742 1.19683 1.64356 1.00657 1.86139 2.44615 1.43313 2.57295 2.10506 2.09971 2.03143 1.40953 1.93664 2.42107 1.17638 1.44756 2.05011 1.87642 1.21985 2.32394 2.32709 1.43322 2.71323 1.30282 2.04220 1.38308 2.42993 2.00657 1.79857 
checksum = 17545674671505
checksum2 = 28065.826899
Reading gold checksum2 from: ./data/result_matrix128x128_1_150_1_100_.5_2.txt
gold checksum2 = 28066.087891

PASSED
GPGPU-Sim: *** exit detected ***
